* NGSPICE file created from uart_wbs_bridge.ext - technology: sky130A

* Black-box entry subcircuit for sky130_fd_sc_hd__tapvpwrvgnd_1 abstract view
.subckt sky130_fd_sc_hd__tapvpwrvgnd_1 VGND VPWR
.ends

* Black-box entry subcircuit for sky130_fd_sc_hd__fill_2 abstract view
.subckt sky130_fd_sc_hd__fill_2 VGND VNB VPB VPWR
.ends

* Black-box entry subcircuit for sky130_fd_sc_hd__dlygate4sd3_1 abstract view
.subckt sky130_fd_sc_hd__dlygate4sd3_1 A VGND VNB VPB VPWR X
.ends

* Black-box entry subcircuit for sky130_ef_sc_hd__decap_12 abstract view
.subckt sky130_ef_sc_hd__decap_12 VGND VNB VPB VPWR
.ends

* Black-box entry subcircuit for sky130_fd_sc_hd__fill_1 abstract view
.subckt sky130_fd_sc_hd__fill_1 VGND VNB VPB VPWR
.ends

* Black-box entry subcircuit for sky130_fd_sc_hd__inv_2 abstract view
.subckt sky130_fd_sc_hd__inv_2 A VGND VNB VPB VPWR Y
.ends

* Black-box entry subcircuit for sky130_fd_sc_hd__decap_4 abstract view
.subckt sky130_fd_sc_hd__decap_4 VGND VNB VPB VPWR
.ends

* Black-box entry subcircuit for sky130_fd_sc_hd__or3b_1 abstract view
.subckt sky130_fd_sc_hd__or3b_1 A B C_N VGND VNB VPB VPWR X
.ends

* Black-box entry subcircuit for sky130_fd_sc_hd__dfrtp_4 abstract view
.subckt sky130_fd_sc_hd__dfrtp_4 CLK D RESET_B VGND VNB VPB VPWR Q
.ends

* Black-box entry subcircuit for sky130_fd_sc_hd__dfrtp_1 abstract view
.subckt sky130_fd_sc_hd__dfrtp_1 CLK D RESET_B VGND VNB VPB VPWR Q
.ends

* Black-box entry subcircuit for sky130_fd_sc_hd__buf_8 abstract view
.subckt sky130_fd_sc_hd__buf_8 A VGND VNB VPB VPWR X
.ends

* Black-box entry subcircuit for sky130_fd_sc_hd__clkbuf_8 abstract view
.subckt sky130_fd_sc_hd__clkbuf_8 A VGND VNB VPB VPWR X
.ends

* Black-box entry subcircuit for sky130_fd_sc_hd__buf_6 abstract view
.subckt sky130_fd_sc_hd__buf_6 A VGND VNB VPB VPWR X
.ends

* Black-box entry subcircuit for sky130_fd_sc_hd__decap_3 abstract view
.subckt sky130_fd_sc_hd__decap_3 VGND VNB VPB VPWR
.ends

* Black-box entry subcircuit for sky130_fd_sc_hd__decap_6 abstract view
.subckt sky130_fd_sc_hd__decap_6 VGND VNB VPB VPWR
.ends

* Black-box entry subcircuit for sky130_fd_sc_hd__or4bb_1 abstract view
.subckt sky130_fd_sc_hd__or4bb_1 A B C_N D_N VGND VNB VPB VPWR X
.ends

* Black-box entry subcircuit for sky130_fd_sc_hd__diode_2 abstract view
.subckt sky130_fd_sc_hd__diode_2 DIODE VGND VNB VPB VPWR
.ends

* Black-box entry subcircuit for sky130_fd_sc_hd__nor2_1 abstract view
.subckt sky130_fd_sc_hd__nor2_1 A B VGND VNB VPB VPWR Y
.ends

* Black-box entry subcircuit for sky130_fd_sc_hd__decap_8 abstract view
.subckt sky130_fd_sc_hd__decap_8 VGND VNB VPB VPWR
.ends

* Black-box entry subcircuit for sky130_fd_sc_hd__nand2_2 abstract view
.subckt sky130_fd_sc_hd__nand2_2 A B VGND VNB VPB VPWR Y
.ends

* Black-box entry subcircuit for sky130_fd_sc_hd__nor2_2 abstract view
.subckt sky130_fd_sc_hd__nor2_2 A B VGND VNB VPB VPWR Y
.ends

* Black-box entry subcircuit for sky130_fd_sc_hd__nand2_1 abstract view
.subckt sky130_fd_sc_hd__nand2_1 A B VGND VNB VPB VPWR Y
.ends

* Black-box entry subcircuit for sky130_fd_sc_hd__or4_1 abstract view
.subckt sky130_fd_sc_hd__or4_1 A B C D VGND VNB VPB VPWR X
.ends

* Black-box entry subcircuit for sky130_fd_sc_hd__and2_1 abstract view
.subckt sky130_fd_sc_hd__and2_1 A B VGND VNB VPB VPWR X
.ends

* Black-box entry subcircuit for sky130_fd_sc_hd__mux2_1 abstract view
.subckt sky130_fd_sc_hd__mux2_1 A0 A1 S VGND VNB VPB VPWR X
.ends

* Black-box entry subcircuit for sky130_fd_sc_hd__or4_4 abstract view
.subckt sky130_fd_sc_hd__or4_4 A B C D VGND VNB VPB VPWR X
.ends

* Black-box entry subcircuit for sky130_fd_sc_hd__clkbuf_2 abstract view
.subckt sky130_fd_sc_hd__clkbuf_2 A VGND VNB VPB VPWR X
.ends

* Black-box entry subcircuit for sky130_fd_sc_hd__and3b_1 abstract view
.subckt sky130_fd_sc_hd__and3b_1 A_N B C VGND VNB VPB VPWR X
.ends

* Black-box entry subcircuit for sky130_fd_sc_hd__buf_12 abstract view
.subckt sky130_fd_sc_hd__buf_12 A VGND VNB VPB VPWR X
.ends

* Black-box entry subcircuit for sky130_fd_sc_hd__a2bb2o_1 abstract view
.subckt sky130_fd_sc_hd__a2bb2o_1 A1_N A2_N B1 B2 VGND VNB VPB VPWR X
.ends

* Black-box entry subcircuit for sky130_fd_sc_hd__dfstp_1 abstract view
.subckt sky130_fd_sc_hd__dfstp_1 CLK D SET_B VGND VNB VPB VPWR Q
.ends

* Black-box entry subcircuit for sky130_fd_sc_hd__buf_4 abstract view
.subckt sky130_fd_sc_hd__buf_4 A VGND VNB VPB VPWR X
.ends

* Black-box entry subcircuit for sky130_fd_sc_hd__nor3_1 abstract view
.subckt sky130_fd_sc_hd__nor3_1 A B C VGND VNB VPB VPWR Y
.ends

* Black-box entry subcircuit for sky130_fd_sc_hd__o21a_1 abstract view
.subckt sky130_fd_sc_hd__o21a_1 A1 A2 B1 VGND VNB VPB VPWR X
.ends

* Black-box entry subcircuit for sky130_fd_sc_hd__mux4_1 abstract view
.subckt sky130_fd_sc_hd__mux4_1 A0 A1 A2 A3 S0 S1 VGND VNB VPB VPWR X
.ends

* Black-box entry subcircuit for sky130_fd_sc_hd__a22o_1 abstract view
.subckt sky130_fd_sc_hd__a22o_1 A1 A2 B1 B2 VGND VNB VPB VPWR X
.ends

* Black-box entry subcircuit for sky130_fd_sc_hd__and4_1 abstract view
.subckt sky130_fd_sc_hd__and4_1 A B C D VGND VNB VPB VPWR X
.ends

* Black-box entry subcircuit for sky130_fd_sc_hd__buf_2 abstract view
.subckt sky130_fd_sc_hd__buf_2 A VGND VNB VPB VPWR X
.ends

* Black-box entry subcircuit for sky130_fd_sc_hd__a32o_1 abstract view
.subckt sky130_fd_sc_hd__a32o_1 A1 A2 A3 B1 B2 VGND VNB VPB VPWR X
.ends

* Black-box entry subcircuit for sky130_fd_sc_hd__and4bb_1 abstract view
.subckt sky130_fd_sc_hd__and4bb_1 A_N B_N C D VGND VNB VPB VPWR X
.ends

* Black-box entry subcircuit for sky130_fd_sc_hd__and3_1 abstract view
.subckt sky130_fd_sc_hd__and3_1 A B C VGND VNB VPB VPWR X
.ends

* Black-box entry subcircuit for sky130_fd_sc_hd__or2_2 abstract view
.subckt sky130_fd_sc_hd__or2_2 A B VGND VNB VPB VPWR X
.ends

* Black-box entry subcircuit for sky130_fd_sc_hd__dfrtp_2 abstract view
.subckt sky130_fd_sc_hd__dfrtp_2 CLK D RESET_B VGND VNB VPB VPWR Q
.ends

* Black-box entry subcircuit for sky130_fd_sc_hd__buf_1 abstract view
.subckt sky130_fd_sc_hd__buf_1 A VGND VNB VPB VPWR X
.ends

* Black-box entry subcircuit for sky130_fd_sc_hd__dlymetal6s2s_1 abstract view
.subckt sky130_fd_sc_hd__dlymetal6s2s_1 A VGND VNB VPB VPWR X
.ends

* Black-box entry subcircuit for sky130_fd_sc_hd__a21bo_1 abstract view
.subckt sky130_fd_sc_hd__a21bo_1 A1 A2 B1_N VGND VNB VPB VPWR X
.ends

* Black-box entry subcircuit for sky130_fd_sc_hd__a21o_1 abstract view
.subckt sky130_fd_sc_hd__a21o_1 A1 A2 B1 VGND VNB VPB VPWR X
.ends

* Black-box entry subcircuit for sky130_fd_sc_hd__clkbuf_16 abstract view
.subckt sky130_fd_sc_hd__clkbuf_16 A VGND VNB VPB VPWR X
.ends

* Black-box entry subcircuit for sky130_fd_sc_hd__or3_1 abstract view
.subckt sky130_fd_sc_hd__or3_1 A B C VGND VNB VPB VPWR X
.ends

* Black-box entry subcircuit for sky130_fd_sc_hd__nand3_1 abstract view
.subckt sky130_fd_sc_hd__nand3_1 A B C VGND VNB VPB VPWR Y
.ends

* Black-box entry subcircuit for sky130_fd_sc_hd__and3b_2 abstract view
.subckt sky130_fd_sc_hd__and3b_2 A_N B C VGND VNB VPB VPWR X
.ends

* Black-box entry subcircuit for sky130_fd_sc_hd__or4b_1 abstract view
.subckt sky130_fd_sc_hd__or4b_1 A B C D_N VGND VNB VPB VPWR X
.ends

* Black-box entry subcircuit for sky130_fd_sc_hd__clkdlybuf4s25_1 abstract view
.subckt sky130_fd_sc_hd__clkdlybuf4s25_1 A VGND VNB VPB VPWR X
.ends

* Black-box entry subcircuit for sky130_fd_sc_hd__o31a_1 abstract view
.subckt sky130_fd_sc_hd__o31a_1 A1 A2 A3 B1 VGND VNB VPB VPWR X
.ends

* Black-box entry subcircuit for sky130_fd_sc_hd__nor2_4 abstract view
.subckt sky130_fd_sc_hd__nor2_4 A B VGND VNB VPB VPWR Y
.ends

* Black-box entry subcircuit for sky130_fd_sc_hd__a21oi_1 abstract view
.subckt sky130_fd_sc_hd__a21oi_1 A1 A2 B1 VGND VNB VPB VPWR Y
.ends

* Black-box entry subcircuit for sky130_fd_sc_hd__or2_1 abstract view
.subckt sky130_fd_sc_hd__or2_1 A B VGND VNB VPB VPWR X
.ends

* Black-box entry subcircuit for sky130_fd_sc_hd__nor3b_4 abstract view
.subckt sky130_fd_sc_hd__nor3b_4 A B C_N VGND VNB VPB VPWR Y
.ends

* Black-box entry subcircuit for sky130_fd_sc_hd__o2bb2a_1 abstract view
.subckt sky130_fd_sc_hd__o2bb2a_1 A1_N A2_N B1 B2 VGND VNB VPB VPWR X
.ends

* Black-box entry subcircuit for sky130_fd_sc_hd__and3_2 abstract view
.subckt sky130_fd_sc_hd__and3_2 A B C VGND VNB VPB VPWR X
.ends

* Black-box entry subcircuit for sky130_fd_sc_hd__a211o_1 abstract view
.subckt sky130_fd_sc_hd__a211o_1 A1 A2 B1 C1 VGND VNB VPB VPWR X
.ends

* Black-box entry subcircuit for sky130_fd_sc_hd__and4b_1 abstract view
.subckt sky130_fd_sc_hd__and4b_1 A_N B C D VGND VNB VPB VPWR X
.ends

* Black-box entry subcircuit for sky130_fd_sc_hd__o22a_1 abstract view
.subckt sky130_fd_sc_hd__o22a_1 A1 A2 B1 B2 VGND VNB VPB VPWR X
.ends

* Black-box entry subcircuit for sky130_fd_sc_hd__and2b_1 abstract view
.subckt sky130_fd_sc_hd__and2b_1 A_N B VGND VNB VPB VPWR X
.ends

* Black-box entry subcircuit for sky130_fd_sc_hd__a31o_1 abstract view
.subckt sky130_fd_sc_hd__a31o_1 A1 A2 A3 B1 VGND VNB VPB VPWR X
.ends

* Black-box entry subcircuit for sky130_fd_sc_hd__nand2b_1 abstract view
.subckt sky130_fd_sc_hd__nand2b_1 A_N B VGND VNB VPB VPWR Y
.ends

* Black-box entry subcircuit for sky130_fd_sc_hd__clkbuf_1 abstract view
.subckt sky130_fd_sc_hd__clkbuf_1 A VGND VNB VPB VPWR X
.ends

* Black-box entry subcircuit for sky130_fd_sc_hd__nand2_4 abstract view
.subckt sky130_fd_sc_hd__nand2_4 A B VGND VNB VPB VPWR Y
.ends

* Black-box entry subcircuit for sky130_fd_sc_hd__o21ai_1 abstract view
.subckt sky130_fd_sc_hd__o21ai_1 A1 A2 B1 VGND VNB VPB VPWR Y
.ends

* Black-box entry subcircuit for sky130_fd_sc_hd__or3_2 abstract view
.subckt sky130_fd_sc_hd__or3_2 A B C VGND VNB VPB VPWR X
.ends

* Black-box entry subcircuit for sky130_fd_sc_hd__or3b_2 abstract view
.subckt sky130_fd_sc_hd__or3b_2 A B C_N VGND VNB VPB VPWR X
.ends

* Black-box entry subcircuit for sky130_fd_sc_hd__a41o_1 abstract view
.subckt sky130_fd_sc_hd__a41o_1 A1 A2 A3 A4 B1 VGND VNB VPB VPWR X
.ends

* Black-box entry subcircuit for sky130_fd_sc_hd__nand3b_4 abstract view
.subckt sky130_fd_sc_hd__nand3b_4 A_N B C VGND VNB VPB VPWR Y
.ends

* Black-box entry subcircuit for sky130_fd_sc_hd__o41a_1 abstract view
.subckt sky130_fd_sc_hd__o41a_1 A1 A2 A3 A4 B1 VGND VNB VPB VPWR X
.ends

* Black-box entry subcircuit for sky130_fd_sc_hd__a311o_1 abstract view
.subckt sky130_fd_sc_hd__a311o_1 A1 A2 A3 B1 C1 VGND VNB VPB VPWR X
.ends

* Black-box entry subcircuit for sky130_fd_sc_hd__and3b_4 abstract view
.subckt sky130_fd_sc_hd__and3b_4 A_N B C VGND VNB VPB VPWR X
.ends

* Black-box entry subcircuit for sky130_fd_sc_hd__clkbuf_4 abstract view
.subckt sky130_fd_sc_hd__clkbuf_4 A VGND VNB VPB VPWR X
.ends

* Black-box entry subcircuit for sky130_fd_sc_hd__a211oi_1 abstract view
.subckt sky130_fd_sc_hd__a211oi_1 A1 A2 B1 C1 VGND VNB VPB VPWR Y
.ends

* Black-box entry subcircuit for sky130_fd_sc_hd__xnor2_1 abstract view
.subckt sky130_fd_sc_hd__xnor2_1 A B VGND VNB VPB VPWR Y
.ends

* Black-box entry subcircuit for sky130_fd_sc_hd__and4bb_2 abstract view
.subckt sky130_fd_sc_hd__and4bb_2 A_N B_N C D VGND VNB VPB VPWR X
.ends

* Black-box entry subcircuit for sky130_fd_sc_hd__and4_2 abstract view
.subckt sky130_fd_sc_hd__and4_2 A B C D VGND VNB VPB VPWR X
.ends

* Black-box entry subcircuit for sky130_fd_sc_hd__and2_2 abstract view
.subckt sky130_fd_sc_hd__and2_2 A B VGND VNB VPB VPWR X
.ends

* Black-box entry subcircuit for sky130_fd_sc_hd__o32a_1 abstract view
.subckt sky130_fd_sc_hd__o32a_1 A1 A2 A3 B1 B2 VGND VNB VPB VPWR X
.ends

* Black-box entry subcircuit for sky130_fd_sc_hd__nor3b_1 abstract view
.subckt sky130_fd_sc_hd__nor3b_1 A B C_N VGND VNB VPB VPWR Y
.ends

* Black-box entry subcircuit for sky130_fd_sc_hd__a21boi_1 abstract view
.subckt sky130_fd_sc_hd__a21boi_1 A1 A2 B1_N VGND VNB VPB VPWR Y
.ends

* Black-box entry subcircuit for sky130_fd_sc_hd__a31oi_1 abstract view
.subckt sky130_fd_sc_hd__a31oi_1 A1 A2 A3 B1 VGND VNB VPB VPWR Y
.ends

* Black-box entry subcircuit for sky130_fd_sc_hd__or2_4 abstract view
.subckt sky130_fd_sc_hd__or2_4 A B VGND VNB VPB VPWR X
.ends

* Black-box entry subcircuit for sky130_fd_sc_hd__o21bai_1 abstract view
.subckt sky130_fd_sc_hd__o21bai_1 A1 A2 B1_N VGND VNB VPB VPWR Y
.ends

.subckt uart_wbs_bridge clk i_start_rx i_uart_rx o_uart_tx rst vccd1 vssd1 wb_ack_i
+ wb_adr_o[0] wb_adr_o[10] wb_adr_o[11] wb_adr_o[12] wb_adr_o[13] wb_adr_o[14] wb_adr_o[15]
+ wb_adr_o[16] wb_adr_o[17] wb_adr_o[18] wb_adr_o[19] wb_adr_o[1] wb_adr_o[20] wb_adr_o[21]
+ wb_adr_o[22] wb_adr_o[23] wb_adr_o[24] wb_adr_o[25] wb_adr_o[26] wb_adr_o[27] wb_adr_o[28]
+ wb_adr_o[29] wb_adr_o[2] wb_adr_o[30] wb_adr_o[31] wb_adr_o[3] wb_adr_o[4] wb_adr_o[5]
+ wb_adr_o[6] wb_adr_o[7] wb_adr_o[8] wb_adr_o[9] wb_cyc_o wb_dat_i[0] wb_dat_i[10]
+ wb_dat_i[11] wb_dat_i[12] wb_dat_i[13] wb_dat_i[14] wb_dat_i[15] wb_dat_i[16] wb_dat_i[17]
+ wb_dat_i[18] wb_dat_i[19] wb_dat_i[1] wb_dat_i[20] wb_dat_i[21] wb_dat_i[22] wb_dat_i[23]
+ wb_dat_i[24] wb_dat_i[25] wb_dat_i[26] wb_dat_i[27] wb_dat_i[28] wb_dat_i[29] wb_dat_i[2]
+ wb_dat_i[30] wb_dat_i[31] wb_dat_i[3] wb_dat_i[4] wb_dat_i[5] wb_dat_i[6] wb_dat_i[7]
+ wb_dat_i[8] wb_dat_i[9] wb_dat_o[0] wb_dat_o[10] wb_dat_o[11] wb_dat_o[12] wb_dat_o[13]
+ wb_dat_o[14] wb_dat_o[15] wb_dat_o[16] wb_dat_o[17] wb_dat_o[18] wb_dat_o[19] wb_dat_o[1]
+ wb_dat_o[20] wb_dat_o[21] wb_dat_o[22] wb_dat_o[23] wb_dat_o[24] wb_dat_o[25] wb_dat_o[26]
+ wb_dat_o[27] wb_dat_o[28] wb_dat_o[29] wb_dat_o[2] wb_dat_o[30] wb_dat_o[31] wb_dat_o[3]
+ wb_dat_o[4] wb_dat_o[5] wb_dat_o[6] wb_dat_o[7] wb_dat_o[8] wb_dat_o[9] wb_stb_o
+ wb_we_o
XTAP_177 vssd1 vccd1 sky130_fd_sc_hd__tapvpwrvgnd_1
XTAP_188 vssd1 vccd1 sky130_fd_sc_hd__tapvpwrvgnd_1
XTAP_199 vssd1 vccd1 sky130_fd_sc_hd__tapvpwrvgnd_1
XFILLER_0_17_222 vssd1 vssd1 vccd1 vccd1 sky130_fd_sc_hd__fill_2
Xhold351 _0845_/X vssd1 vssd1 vccd1 vccd1 _1608_/D sky130_fd_sc_hd__dlygate4sd3_1
Xhold362 _1613_/Q vssd1 vssd1 vccd1 vccd1 _0798_/C sky130_fd_sc_hd__dlygate4sd3_1
Xhold340 _1615_/Q vssd1 vssd1 vccd1 vccd1 _0828_/A sky130_fd_sc_hd__dlygate4sd3_1
XFILLER_0_32_214 vssd1 vssd1 vccd1 vccd1 sky130_ef_sc_hd__decap_12
XFILLER_0_17_266 vssd1 vssd1 vccd1 vccd1 sky130_ef_sc_hd__decap_12
Xhold373 _1588_/Q vssd1 vssd1 vccd1 vccd1 hold373/X sky130_fd_sc_hd__dlygate4sd3_1
Xhold384 _1585_/Q vssd1 vssd1 vccd1 vccd1 hold54/A sky130_fd_sc_hd__dlygate4sd3_1
XFILLER_0_48_48 vssd1 vssd1 vccd1 vccd1 sky130_fd_sc_hd__fill_1
XFILLER_0_48_26 vssd1 vssd1 vccd1 vccd1 sky130_fd_sc_hd__fill_2
X_1270_ _1402_/A vssd1 vssd1 vccd1 vccd1 _1270_/Y sky130_fd_sc_hd__inv_2
XFILLER_0_46_306 vssd1 vssd1 vccd1 vccd1 sky130_fd_sc_hd__fill_2
XFILLER_0_13_73 vssd1 vssd1 vccd1 vccd1 sky130_fd_sc_hd__decap_4
XFILLER_0_1_130 vssd1 vssd1 vccd1 vccd1 sky130_ef_sc_hd__decap_12
X_0985_ _1100_/A _1100_/C _1192_/C vssd1 vssd1 vccd1 vccd1 _1027_/A sky130_fd_sc_hd__or3b_1
X_1606_ _1625_/CLK _1606_/D _1388_/Y vssd1 vssd1 vccd1 vccd1 _1606_/Q sky130_fd_sc_hd__dfrtp_4
X_1537_ _1548_/CLK _1537_/D _1319_/Y vssd1 vssd1 vccd1 vccd1 _1537_/Q sky130_fd_sc_hd__dfrtp_1
X_1399_ _1409_/A vssd1 vssd1 vccd1 vccd1 _1399_/Y sky130_fd_sc_hd__inv_2
Xfanout127 _1416_/A vssd1 vssd1 vccd1 vccd1 _1384_/A sky130_fd_sc_hd__buf_8
X_1468_ _1605_/CLK _1468_/D _1250_/Y vssd1 vssd1 vccd1 vccd1 _1468_/Q sky130_fd_sc_hd__dfrtp_1
Xfanout116 hold80/X vssd1 vssd1 vccd1 vccd1 _1100_/B sky130_fd_sc_hd__clkbuf_8
Xfanout105 _1173_/S vssd1 vssd1 vccd1 vccd1 _1168_/S sky130_fd_sc_hd__buf_6
XFILLER_0_49_177 vssd1 vssd1 vccd1 vccd1 sky130_ef_sc_hd__decap_12
XFILLER_0_37_317 vssd1 vssd1 vccd1 vccd1 sky130_ef_sc_hd__decap_12
Xhold181 _1457_/Q vssd1 vssd1 vccd1 vccd1 hold181/X sky130_fd_sc_hd__dlygate4sd3_1
Xhold192 _0765_/X vssd1 vssd1 vccd1 vccd1 _1628_/D sky130_fd_sc_hd__dlygate4sd3_1
Xhold170 _1133_/X vssd1 vssd1 vccd1 vccd1 _1458_/D sky130_fd_sc_hd__dlygate4sd3_1
XFILLER_0_18_29 vssd1 vssd1 vccd1 vccd1 sky130_fd_sc_hd__decap_3
XFILLER_0_50_49 vssd1 vssd1 vccd1 vccd1 sky130_fd_sc_hd__decap_6
XFILLER_0_28_306 vssd1 vssd1 vccd1 vccd1 sky130_fd_sc_hd__fill_2
X_0770_ _1623_/Q _1622_/Q _0795_/B _1608_/Q vssd1 vssd1 vccd1 vccd1 _0773_/B sky130_fd_sc_hd__or4bb_1
X_1322_ _1387_/A vssd1 vssd1 vccd1 vccd1 _1322_/Y sky130_fd_sc_hd__inv_2
X_1253_ _1339_/A vssd1 vssd1 vccd1 vccd1 _1253_/Y sky130_fd_sc_hd__inv_2
XANTENNA__1106__A0 _0995_/C vssd1 vssd1 vccd1 vccd1 sky130_fd_sc_hd__diode_2
XANTENNA__1113__S _1135_/S vssd1 vssd1 vccd1 vccd1 sky130_fd_sc_hd__diode_2
X_1184_ _1184_/A _1184_/B vssd1 vssd1 vccd1 vccd1 _1185_/C sky130_fd_sc_hd__nor2_1
XFILLER_0_54_191 vssd1 vssd1 vccd1 vccd1 sky130_fd_sc_hd__decap_4
XFILLER_0_42_320 vssd1 vssd1 vccd1 vccd1 sky130_ef_sc_hd__decap_12
XFILLER_0_24_61 vssd1 vssd1 vccd1 vccd1 sky130_fd_sc_hd__decap_3
XFILLER_0_19_328 vssd1 vssd1 vccd1 vccd1 sky130_fd_sc_hd__decap_8
X_0968_ _1140_/A _1073_/B vssd1 vssd1 vccd1 vccd1 _1068_/S sky130_fd_sc_hd__nand2_2
X_0899_ input1/X _0933_/B vssd1 vssd1 vccd1 vccd1 _0925_/A sky130_fd_sc_hd__nor2_2
XFILLER_0_40_82 vssd1 vssd1 vccd1 vccd1 sky130_fd_sc_hd__fill_2
XFILLER_0_10_250 vssd1 vssd1 vccd1 vccd1 sky130_fd_sc_hd__fill_2
XFILLER_0_4_93 vssd1 vssd1 vccd1 vccd1 sky130_fd_sc_hd__fill_2
XFILLER_0_52_106 vssd1 vssd1 vccd1 vccd1 sky130_ef_sc_hd__decap_12
XFILLER_0_20_19 vssd1 vssd1 vccd1 vccd1 sky130_fd_sc_hd__fill_2
XFILLER_0_43_117 vssd1 vssd1 vccd1 vccd1 sky130_fd_sc_hd__fill_1
X_0822_ _0822_/A _0836_/A vssd1 vssd1 vccd1 vccd1 _0822_/Y sky130_fd_sc_hd__nand2_1
XFILLER_0_24_320 vssd1 vssd1 vccd1 vccd1 sky130_fd_sc_hd__fill_2
XFILLER_0_51_172 vssd1 vssd1 vccd1 vccd1 sky130_fd_sc_hd__decap_6
XANTENNA__1108__S _1135_/S vssd1 vssd1 vccd1 vccd1 sky130_fd_sc_hd__diode_2
X_0753_ _0753_/A _1584_/Q _0764_/B _0753_/D vssd1 vssd1 vccd1 vccd1 _0753_/X sky130_fd_sc_hd__or4_1
XFILLER_0_10_85 vssd1 vssd1 vccd1 vccd1 sky130_fd_sc_hd__fill_2
X_1305_ _1404_/A vssd1 vssd1 vccd1 vccd1 _1305_/Y sky130_fd_sc_hd__inv_2
X_1236_ _1339_/A vssd1 vssd1 vccd1 vccd1 _1236_/Y sky130_fd_sc_hd__inv_2
XFILLER_0_19_72 vssd1 vssd1 vccd1 vccd1 sky130_fd_sc_hd__fill_2
X_1098_ _1098_/A _1098_/B vssd1 vssd1 vccd1 vccd1 _1098_/X sky130_fd_sc_hd__and2_1
X_1167_ hold36/X _1430_/Q _1168_/S vssd1 vssd1 vccd1 vccd1 hold37/A sky130_fd_sc_hd__mux2_1
XFILLER_0_34_139 vssd1 vssd1 vccd1 vccd1 sky130_fd_sc_hd__fill_1
XFILLER_0_19_169 vssd1 vssd1 vccd1 vccd1 sky130_fd_sc_hd__decap_8
XFILLER_0_2_291 vssd1 vssd1 vccd1 vccd1 sky130_ef_sc_hd__decap_12
XFILLER_0_33_161 vssd1 vssd1 vccd1 vccd1 sky130_fd_sc_hd__fill_1
XFILLER_0_0_228 vssd1 vssd1 vccd1 vccd1 sky130_fd_sc_hd__decap_8
XFILLER_0_56_26 vssd1 vssd1 vccd1 vccd1 sky130_fd_sc_hd__fill_2
XANTENNA__1088__A2 input15/X vssd1 vssd1 vccd1 vccd1 sky130_fd_sc_hd__diode_2
X_1021_ _1021_/A _1027_/B vssd1 vssd1 vccd1 vccd1 _1021_/Y sky130_fd_sc_hd__nor2_1
XFILLER_0_56_286 vssd1 vssd1 vccd1 vccd1 sky130_fd_sc_hd__decap_6
XFILLER_0_56_253 vssd1 vssd1 vccd1 vccd1 sky130_fd_sc_hd__decap_4
X_0805_ _0813_/A _0813_/B vssd1 vssd1 vccd1 vccd1 _0805_/Y sky130_fd_sc_hd__nand2_1
XFILLER_0_8_339 vssd1 vssd1 vccd1 vccd1 sky130_fd_sc_hd__fill_1
XFILLER_0_16_106 vssd1 vssd1 vccd1 vccd1 sky130_fd_sc_hd__fill_2
X_0736_ _0917_/A _0741_/B _0741_/C _0736_/D vssd1 vssd1 vccd1 vccd1 _0753_/D sky130_fd_sc_hd__or4_4
XANTENNA__1012__A2 _1059_/A2 vssd1 vssd1 vccd1 vccd1 sky130_fd_sc_hd__diode_2
X_1219_ _1397_/A vssd1 vssd1 vccd1 vccd1 _1219_/Y sky130_fd_sc_hd__inv_2
XFILLER_0_47_275 vssd1 vssd1 vccd1 vccd1 sky130_fd_sc_hd__fill_2
Xhold52 hold52/A vssd1 vssd1 vccd1 vccd1 hold52/X sky130_fd_sc_hd__dlygate4sd3_1
Xhold41 hold41/A vssd1 vssd1 vccd1 vccd1 hold41/X sky130_fd_sc_hd__dlygate4sd3_1
XFILLER_0_26_29 vssd1 vssd1 vccd1 vccd1 sky130_fd_sc_hd__fill_1
Xhold74 hold74/A vssd1 vssd1 vccd1 vccd1 hold74/X sky130_fd_sc_hd__dlygate4sd3_1
Xhold63 hold63/A vssd1 vssd1 vccd1 vccd1 hold63/X sky130_fd_sc_hd__dlygate4sd3_1
Xhold30 hold30/A vssd1 vssd1 vccd1 vccd1 hold30/X sky130_fd_sc_hd__clkbuf_2
Xhold85 hold85/A vssd1 vssd1 vccd1 vccd1 hold85/X sky130_fd_sc_hd__dlygate4sd3_1
Xhold96 hold96/A vssd1 vssd1 vccd1 vccd1 hold96/X sky130_fd_sc_hd__dlygate4sd3_1
XFILLER_0_53_245 vssd1 vssd1 vccd1 vccd1 sky130_ef_sc_hd__decap_12
X_1570_ _1583_/CLK _1570_/D _1352_/Y vssd1 vssd1 vccd1 vccd1 _1570_/Q sky130_fd_sc_hd__dfrtp_1
XTAP_348 vssd1 vccd1 sky130_fd_sc_hd__tapvpwrvgnd_1
XTAP_337 vssd1 vccd1 sky130_fd_sc_hd__tapvpwrvgnd_1
XTAP_326 vssd1 vccd1 sky130_fd_sc_hd__tapvpwrvgnd_1
XTAP_315 vssd1 vccd1 sky130_fd_sc_hd__tapvpwrvgnd_1
XTAP_304 vssd1 vccd1 sky130_fd_sc_hd__tapvpwrvgnd_1
XTAP_359 vssd1 vccd1 sky130_fd_sc_hd__tapvpwrvgnd_1
XFILLER_0_44_212 vssd1 vssd1 vccd1 vccd1 sky130_fd_sc_hd__fill_1
X_1004_ _0981_/A _1100_/C _1192_/B vssd1 vssd1 vccd1 vccd1 _1005_/B sky130_fd_sc_hd__and3b_1
XANTENNA__1121__S _1133_/S vssd1 vssd1 vccd1 vccd1 sky130_fd_sc_hd__diode_2
XFILLER_0_4_320 vssd1 vssd1 vccd1 vccd1 sky130_fd_sc_hd__decap_4
XFILLER_0_12_186 vssd1 vssd1 vccd1 vccd1 sky130_fd_sc_hd__decap_3
X_0719_ _0967_/B vssd1 vssd1 vccd1 vccd1 _1141_/B sky130_fd_sc_hd__inv_2
XFILLER_0_35_245 vssd1 vssd1 vccd1 vccd1 sky130_fd_sc_hd__fill_1
Xoutput75 _1469_/Q vssd1 vssd1 vccd1 vccd1 wb_dat_o[13] sky130_fd_sc_hd__buf_12
Xoutput64 _1428_/Q vssd1 vssd1 vccd1 vccd1 wb_adr_o[4] sky130_fd_sc_hd__buf_12
Xoutput42 _1437_/Q vssd1 vssd1 vccd1 vccd1 wb_adr_o[13] sky130_fd_sc_hd__buf_12
Xoutput53 _1447_/Q vssd1 vssd1 vccd1 vccd1 wb_adr_o[23] sky130_fd_sc_hd__buf_12
Xoutput97 _1460_/Q vssd1 vssd1 vccd1 vccd1 wb_dat_o[4] sky130_fd_sc_hd__buf_12
Xoutput86 _1479_/Q vssd1 vssd1 vccd1 vccd1 wb_dat_o[23] sky130_fd_sc_hd__buf_12
XANTENNA__0974__B2 _1059_/A2 vssd1 vssd1 vccd1 vccd1 sky130_fd_sc_hd__diode_2
X_1622_ _1623_/CLK _1622_/D _1404_/Y vssd1 vssd1 vccd1 vccd1 _1622_/Q sky130_fd_sc_hd__dfrtp_1
XTAP_156 vssd1 vccd1 sky130_fd_sc_hd__tapvpwrvgnd_1
X_1553_ _1600_/CLK _1553_/D _1335_/Y vssd1 vssd1 vccd1 vccd1 hold10/A sky130_fd_sc_hd__dfrtp_1
XTAP_145 vssd1 vccd1 sky130_fd_sc_hd__tapvpwrvgnd_1
XTAP_134 vssd1 vccd1 sky130_fd_sc_hd__tapvpwrvgnd_1
XTAP_123 vssd1 vccd1 sky130_fd_sc_hd__tapvpwrvgnd_1
XTAP_167 vssd1 vccd1 sky130_fd_sc_hd__tapvpwrvgnd_1
XTAP_178 vssd1 vccd1 sky130_fd_sc_hd__tapvpwrvgnd_1
XTAP_189 vssd1 vccd1 sky130_fd_sc_hd__tapvpwrvgnd_1
XANTENNA__1116__S _1133_/S vssd1 vssd1 vccd1 vccd1 sky130_fd_sc_hd__diode_2
X_1484_ _1632_/CLK _1484_/D _1266_/Y vssd1 vssd1 vccd1 vccd1 _1484_/Q sky130_fd_sc_hd__dfrtp_1
XFILLER_0_49_337 vssd1 vssd1 vccd1 vccd1 sky130_fd_sc_hd__decap_3
XFILLER_0_17_256 vssd1 vssd1 vccd1 vccd1 sky130_fd_sc_hd__fill_2
XFILLER_0_17_278 vssd1 vssd1 vccd1 vccd1 sky130_fd_sc_hd__fill_2
Xhold385 _1529_/Q vssd1 vssd1 vccd1 vccd1 hold385/X sky130_fd_sc_hd__dlygate4sd3_1
Xhold341 _0829_/X vssd1 vssd1 vccd1 vccd1 _0830_/A sky130_fd_sc_hd__dlygate4sd3_1
Xhold352 _1622_/Q vssd1 vssd1 vccd1 vccd1 _0807_/A sky130_fd_sc_hd__dlygate4sd3_1
XFILLER_0_32_259 vssd1 vssd1 vccd1 vccd1 sky130_fd_sc_hd__decap_4
XFILLER_0_32_226 vssd1 vssd1 vccd1 vccd1 sky130_fd_sc_hd__fill_1
Xhold374 _1594_/Q vssd1 vssd1 vccd1 vccd1 hold374/X sky130_fd_sc_hd__dlygate4sd3_1
XFILLER_0_4_194 vssd1 vssd1 vccd1 vccd1 sky130_fd_sc_hd__fill_2
XFILLER_0_4_172 vssd1 vssd1 vccd1 vccd1 sky130_fd_sc_hd__decap_4
Xhold330 _1418_/Q vssd1 vssd1 vccd1 vccd1 _0950_/B sky130_fd_sc_hd__dlygate4sd3_1
Xhold363 _1419_/Q vssd1 vssd1 vccd1 vccd1 hold363/X sky130_fd_sc_hd__dlygate4sd3_1
XFILLER_0_23_19 vssd1 vssd1 vccd1 vccd1 sky130_fd_sc_hd__fill_2
XANTENNA_clkbuf_leaf_5_clk_A clkbuf_leaf_9_clk/A vssd1 vssd1 vccd1 vccd1 sky130_fd_sc_hd__diode_2
XFILLER_0_23_215 vssd1 vssd1 vccd1 vccd1 sky130_fd_sc_hd__decap_4
XFILLER_0_2_109 vssd1 vssd1 vccd1 vccd1 sky130_fd_sc_hd__decap_4
XANTENNA__0956__A1 _1100_/A vssd1 vssd1 vccd1 vccd1 sky130_fd_sc_hd__diode_2
XFILLER_0_48_38 vssd1 vssd1 vccd1 vccd1 sky130_fd_sc_hd__fill_2
XFILLER_0_31_292 vssd1 vssd1 vccd1 vccd1 sky130_fd_sc_hd__decap_8
XFILLER_0_31_281 vssd1 vssd1 vccd1 vccd1 sky130_fd_sc_hd__decap_3
XFILLER_0_46_318 vssd1 vssd1 vccd1 vccd1 sky130_fd_sc_hd__fill_1
X_0984_ _0971_/Y _1025_/A hold225/X _1071_/S vssd1 vssd1 vccd1 vccd1 _1554_/D sky130_fd_sc_hd__a2bb2o_1
XFILLER_0_1_142 vssd1 vssd1 vccd1 vccd1 sky130_fd_sc_hd__decap_4
X_1605_ _1605_/CLK hold1/X _1387_/Y vssd1 vssd1 vccd1 vccd1 hold30/A sky130_fd_sc_hd__dfstp_1
X_1536_ _1556_/CLK _1536_/D _1318_/Y vssd1 vssd1 vccd1 vccd1 _1536_/Q sky130_fd_sc_hd__dfrtp_1
X_1467_ _1544_/CLK hold7/X _1249_/Y vssd1 vssd1 vccd1 vccd1 _1467_/Q sky130_fd_sc_hd__dfrtp_1
XFILLER_0_38_71 vssd1 vssd1 vccd1 vccd1 sky130_fd_sc_hd__fill_1
X_1398_ _1409_/A vssd1 vssd1 vccd1 vccd1 _1398_/Y sky130_fd_sc_hd__inv_2
Xfanout128 _1416_/A vssd1 vssd1 vccd1 vccd1 _1402_/A sky130_fd_sc_hd__buf_4
Xfanout106 _1171_/S vssd1 vssd1 vccd1 vccd1 _1173_/S sky130_fd_sc_hd__buf_6
Xfanout117 _1007_/B vssd1 vssd1 vccd1 vccd1 _1100_/C sky130_fd_sc_hd__buf_4
XFILLER_0_49_189 vssd1 vssd1 vccd1 vccd1 sky130_ef_sc_hd__decap_12
XFILLER_0_37_329 vssd1 vssd1 vccd1 vccd1 sky130_fd_sc_hd__decap_6
XANTENNA_hold115_A _0975_/X vssd1 vssd1 vccd1 vccd1 sky130_fd_sc_hd__diode_2
Xhold193 _1434_/Q vssd1 vssd1 vccd1 vccd1 hold193/X sky130_fd_sc_hd__dlygate4sd3_1
Xhold182 _1134_/X vssd1 vssd1 vccd1 vccd1 _1457_/D sky130_fd_sc_hd__dlygate4sd3_1
Xhold171 hold180/X vssd1 vssd1 vccd1 vccd1 hold171/X sky130_fd_sc_hd__dlygate4sd3_1
Xhold160 _1432_/Q vssd1 vssd1 vccd1 vccd1 hold160/X sky130_fd_sc_hd__dlygate4sd3_1
X_1252_ _1415_/A vssd1 vssd1 vccd1 vccd1 _1252_/Y sky130_fd_sc_hd__inv_2
X_1321_ _1387_/A vssd1 vssd1 vccd1 vccd1 _1321_/Y sky130_fd_sc_hd__inv_2
X_1183_ _1183_/A _1183_/B vssd1 vssd1 vccd1 vccd1 _1183_/Y sky130_fd_sc_hd__nor2_1
XFILLER_0_42_332 vssd1 vssd1 vccd1 vccd1 sky130_fd_sc_hd__decap_8
XFILLER_0_40_61 vssd1 vssd1 vccd1 vccd1 sky130_fd_sc_hd__fill_1
XFILLER_0_40_50 vssd1 vssd1 vccd1 vccd1 sky130_fd_sc_hd__fill_1
XFILLER_0_6_223 vssd1 vssd1 vccd1 vccd1 sky130_fd_sc_hd__fill_2
XFILLER_0_6_245 vssd1 vssd1 vccd1 vccd1 sky130_fd_sc_hd__fill_2
X_0967_ _1420_/Q _0967_/B _1418_/Q vssd1 vssd1 vccd1 vccd1 _0967_/Y sky130_fd_sc_hd__nor3_1
X_0898_ _0897_/Y _0897_/A _0898_/S vssd1 vssd1 vccd1 vccd1 _1582_/D sky130_fd_sc_hd__mux2_1
X_1519_ _1634_/CLK _1519_/D _1301_/Y vssd1 vssd1 vccd1 vccd1 _1519_/Q sky130_fd_sc_hd__dfrtp_1
XFILLER_0_10_284 vssd1 vssd1 vccd1 vccd1 sky130_fd_sc_hd__fill_1
XFILLER_0_52_118 vssd1 vssd1 vccd1 vccd1 sky130_ef_sc_hd__decap_12
X_0752_ hold2/X hold30/X _0752_/S vssd1 vssd1 vccd1 vccd1 hold31/A sky130_fd_sc_hd__mux2_1
XFILLER_0_28_137 vssd1 vssd1 vccd1 vccd1 sky130_fd_sc_hd__decap_3
X_0821_ _0817_/A _0816_/X _0820_/Y vssd1 vssd1 vccd1 vccd1 _0821_/X sky130_fd_sc_hd__o21a_1
XANTENNA__1024__B1 _1103_/B vssd1 vssd1 vccd1 vccd1 sky130_fd_sc_hd__diode_2
XFILLER_0_9_28 vssd1 vssd1 vccd1 vccd1 sky130_fd_sc_hd__decap_3
XFILLER_0_10_97 vssd1 vssd1 vccd1 vccd1 sky130_fd_sc_hd__decap_6
XFILLER_0_19_40 vssd1 vssd1 vccd1 vccd1 sky130_fd_sc_hd__fill_2
X_1235_ _1397_/A vssd1 vssd1 vccd1 vccd1 _1235_/Y sky130_fd_sc_hd__inv_2
XANTENNA__1124__S _1135_/S vssd1 vssd1 vccd1 vccd1 sky130_fd_sc_hd__diode_2
X_1304_ _1417_/A vssd1 vssd1 vccd1 vccd1 _1304_/Y sky130_fd_sc_hd__inv_2
XFILLER_0_29_6 vssd1 vssd1 vccd1 vccd1 sky130_fd_sc_hd__fill_2
X_1166_ hold200/X hold218/X _1168_/S vssd1 vssd1 vccd1 vccd1 _1166_/X sky130_fd_sc_hd__mux2_1
XFILLER_0_19_62 vssd1 vssd1 vccd1 vccd1 sky130_fd_sc_hd__fill_2
XFILLER_0_35_83 vssd1 vssd1 vccd1 vccd1 sky130_ef_sc_hd__decap_12
X_1097_ input5/X input35/X input12/X input21/X _1007_/B _1100_/B vssd1 vssd1 vccd1
+ vccd1 _1098_/B sky130_fd_sc_hd__mux4_1
XFILLER_0_19_148 vssd1 vssd1 vccd1 vccd1 sky130_fd_sc_hd__fill_1
XFILLER_0_42_184 vssd1 vssd1 vccd1 vccd1 sky130_fd_sc_hd__decap_4
XFILLER_0_2_270 vssd1 vssd1 vccd1 vccd1 sky130_fd_sc_hd__fill_1
XANTENNA__1006__B1 _1103_/B vssd1 vssd1 vccd1 vccd1 sky130_fd_sc_hd__diode_2
XFILLER_0_21_335 vssd1 vssd1 vccd1 vccd1 sky130_fd_sc_hd__fill_1
X_1020_ hold231/X _1059_/A2 _1103_/B _1019_/Y vssd1 vssd1 vccd1 vccd1 _1541_/D sky130_fd_sc_hd__a22o_1
X_0735_ _0741_/C _0882_/C vssd1 vssd1 vccd1 vccd1 _0735_/Y sky130_fd_sc_hd__nor2_1
X_0804_ _0837_/A _0837_/B _0804_/C _0804_/D vssd1 vssd1 vccd1 vccd1 _0813_/B sky130_fd_sc_hd__and4_1
XANTENNA__1119__S _1133_/S vssd1 vssd1 vccd1 vccd1 sky130_fd_sc_hd__diode_2
XFILLER_0_12_313 vssd1 vssd1 vccd1 vccd1 sky130_ef_sc_hd__decap_12
XFILLER_0_21_52 vssd1 vssd1 vccd1 vccd1 sky130_fd_sc_hd__fill_2
X_1149_ hold263/X _1448_/Q _1168_/S vssd1 vssd1 vccd1 vccd1 _1149_/X sky130_fd_sc_hd__mux2_1
XFILLER_0_46_93 vssd1 vssd1 vccd1 vccd1 sky130_fd_sc_hd__fill_1
XFILLER_0_46_71 vssd1 vssd1 vccd1 vccd1 sky130_fd_sc_hd__decap_4
X_1218_ _1415_/A vssd1 vssd1 vccd1 vccd1 _1218_/Y sky130_fd_sc_hd__inv_2
XFILLER_0_15_140 vssd1 vssd1 vccd1 vccd1 sky130_fd_sc_hd__decap_3
XFILLER_0_15_173 vssd1 vssd1 vccd1 vccd1 sky130_fd_sc_hd__decap_4
Xhold53 hold53/A vssd1 vssd1 vccd1 vccd1 hold53/X sky130_fd_sc_hd__dlygate4sd3_1
Xhold31 hold31/A vssd1 vssd1 vccd1 vccd1 hold31/X sky130_fd_sc_hd__dlygate4sd3_1
Xhold64 hold64/A vssd1 vssd1 vccd1 vccd1 hold64/X sky130_fd_sc_hd__dlygate4sd3_1
Xhold42 hold42/A vssd1 vssd1 vccd1 vccd1 hold42/X sky130_fd_sc_hd__dlygate4sd3_1
Xhold75 hold75/A vssd1 vssd1 vccd1 vccd1 hold75/X sky130_fd_sc_hd__dlygate4sd3_1
Xhold86 hold86/A vssd1 vssd1 vccd1 vccd1 hold86/X sky130_fd_sc_hd__buf_2
Xhold20 hold20/A vssd1 vssd1 vccd1 vccd1 hold20/X sky130_fd_sc_hd__dlygate4sd3_1
Xhold97 hold97/A vssd1 vssd1 vccd1 vccd1 hold97/X sky130_fd_sc_hd__dlygate4sd3_1
XFILLER_0_42_29 vssd1 vssd1 vccd1 vccd1 sky130_fd_sc_hd__decap_3
XFILLER_0_38_265 vssd1 vssd1 vccd1 vccd1 sky130_fd_sc_hd__fill_1
XFILLER_0_53_257 vssd1 vssd1 vccd1 vccd1 sky130_fd_sc_hd__decap_6
XTAP_349 vssd1 vccd1 sky130_fd_sc_hd__tapvpwrvgnd_1
XTAP_338 vssd1 vccd1 sky130_fd_sc_hd__tapvpwrvgnd_1
XTAP_327 vssd1 vccd1 sky130_fd_sc_hd__tapvpwrvgnd_1
XTAP_316 vssd1 vccd1 sky130_fd_sc_hd__tapvpwrvgnd_1
XTAP_305 vssd1 vccd1 sky130_fd_sc_hd__tapvpwrvgnd_1
XFILLER_0_6_29 vssd1 vssd1 vccd1 vccd1 sky130_fd_sc_hd__fill_2
XFILLER_0_21_165 vssd1 vssd1 vccd1 vccd1 sky130_fd_sc_hd__decap_3
X_1003_ hold6/X _1061_/A2 _1103_/B _1002_/X vssd1 vssd1 vccd1 vccd1 hold85/A sky130_fd_sc_hd__a22o_1
XFILLER_0_16_41 vssd1 vssd1 vccd1 vccd1 sky130_fd_sc_hd__fill_2