*SPEF "ieee 1481-1999"
*DESIGN "osiris_i_mem"
*DATE "11:11:11 Fri 11 11, 1111"
*VENDOR "OpenRCX"
*PROGRAM "Parallel Extraction"
*VERSION "1.0"
*DESIGN_FLOW "NAME_SCOPE LOCAL" "PIN_CAP NONE"
*DIVIDER /
*DELIMITER :
*BUS_DELIMITER []
*T_UNIT 1 NS
*C_UNIT 1 PF
*R_UNIT 1 OHM
*L_UNIT 1 HENRY

*NAME_MAP
*1 io_in[0]
*2 io_in[1]
*3 io_in[2]
*4 io_in[3]
*5 io_in[4]
*6 net316
*7 net317
*8 net318
*9 net319
*10 net320
*11 net321
*12 net322
*13 io_out[0]
*14 io_out[1]
*17 wb_clk_i
*18 _000_
*19 _001_
*20 _002_
*21 _003_
*22 _004_
*23 _005_
*24 _006_
*25 _007_
*26 _008_
*27 _009_
*28 _010_
*29 _011_
*30 _012_
*31 _013_
*32 _014_
*33 _015_
*34 _016_
*35 _017_
*36 _018_
*37 _019_
*38 _020_
*39 _021_
*40 _022_
*41 _023_
*42 _024_
*43 _025_
*44 _026_
*45 _027_
*46 _028_
*47 _029_
*48 _030_
*49 _031_
*50 _032_
*51 _033_
*52 _034_
*53 _035_
*54 _036_
*55 _037_
*56 _038_
*57 _039_
*58 _040_
*59 _041_
*60 _042_
*61 _043_
*62 _044_
*63 _045_
*64 _046_
*65 _047_
*66 _048_
*67 _049_
*68 _050_
*69 _051_
*70 _052_
*71 _053_
*72 _054_
*73 _055_
*74 _056_
*75 _057_
*76 _058_
*77 _059_
*78 _060_
*79 _061_
*80 _062_
*81 _063_
*82 _064_
*83 _065_
*84 _066_
*85 _067_
*86 _068_
*87 _069_
*88 _070_
*89 _071_
*90 _072_
*91 _073_
*92 _074_
*93 _075_
*94 clknet_0_wb_clk_i
*95 clknet_1_0__leaf_wb_clk_i
*96 clknet_1_1__leaf_wb_clk_i
*97 core_data_addr_M\[0\]
*98 core_data_addr_M\[10\]
*99 core_data_addr_M\[11\]
*100 core_data_addr_M\[12\]
*101 core_data_addr_M\[13\]
*102 core_data_addr_M\[14\]
*103 core_data_addr_M\[15\]
*104 core_data_addr_M\[16\]
*105 core_data_addr_M\[17\]
*106 core_data_addr_M\[18\]
*107 core_data_addr_M\[19\]
*108 core_data_addr_M\[1\]
*109 core_data_addr_M\[20\]
*110 core_data_addr_M\[21\]
*111 core_data_addr_M\[22\]
*112 core_data_addr_M\[23\]
*113 core_data_addr_M\[24\]
*114 core_data_addr_M\[25\]
*115 core_data_addr_M\[26\]
*116 core_data_addr_M\[27\]
*117 core_data_addr_M\[28\]
*118 core_data_addr_M\[29\]
*119 core_data_addr_M\[2\]
*120 core_data_addr_M\[30\]
*121 core_data_addr_M\[31\]
*122 core_data_addr_M\[3\]
*123 core_data_addr_M\[4\]
*124 core_data_addr_M\[5\]
*125 core_data_addr_M\[6\]
*126 core_data_addr_M\[7\]
*127 core_data_addr_M\[8\]
*128 core_data_addr_M\[9\]
*129 core_instr_ID\[0\]
*130 core_instr_ID\[10\]
*131 core_instr_ID\[11\]
*132 core_instr_ID\[12\]
*133 core_instr_ID\[13\]
*134 core_instr_ID\[14\]
*135 core_instr_ID\[15\]
*136 core_instr_ID\[16\]
*137 core_instr_ID\[17\]
*138 core_instr_ID\[18\]
*139 core_instr_ID\[19\]
*140 core_instr_ID\[1\]
*141 core_instr_ID\[20\]
*142 core_instr_ID\[21\]
*143 core_instr_ID\[22\]
*144 core_instr_ID\[23\]
*145 core_instr_ID\[24\]
*146 core_instr_ID\[25\]
*147 core_instr_ID\[26\]
*148 core_instr_ID\[27\]
*149 core_instr_ID\[28\]
*150 core_instr_ID\[29\]
*151 core_instr_ID\[2\]
*152 core_instr_ID\[30\]
*153 core_instr_ID\[31\]
*154 core_instr_ID\[3\]
*155 core_instr_ID\[4\]
*156 core_instr_ID\[5\]
*157 core_instr_ID\[6\]
*158 core_instr_ID\[7\]
*159 core_instr_ID\[8\]
*160 core_instr_ID\[9\]
*161 core_mem_write_M
*162 core_pc_IF\[0\]
*163 core_pc_IF\[10\]
*164 core_pc_IF\[11\]
*165 core_pc_IF\[12\]
*166 core_pc_IF\[13\]
*167 core_pc_IF\[14\]
*168 core_pc_IF\[15\]
*169 core_pc_IF\[16\]
*170 core_pc_IF\[17\]
*171 core_pc_IF\[18\]
*172 core_pc_IF\[19\]
*173 core_pc_IF\[1\]
*174 core_pc_IF\[20\]
*175 core_pc_IF\[21\]
*176 core_pc_IF\[22\]
*177 core_pc_IF\[23\]
*178 core_pc_IF\[24\]
*179 core_pc_IF\[25\]
*180 core_pc_IF\[26\]
*181 core_pc_IF\[27\]
*182 core_pc_IF\[28\]
*183 core_pc_IF\[29\]
*184 core_pc_IF\[2\]
*185 core_pc_IF\[30\]
*186 core_pc_IF\[31\]
*187 core_pc_IF\[3\]
*188 core_pc_IF\[4\]
*189 core_pc_IF\[5\]
*190 core_pc_IF\[6\]
*191 core_pc_IF\[7\]
*192 core_pc_IF\[8\]
*193 core_pc_IF\[9\]
*194 core_read_data_M\[0\]
*195 core_read_data_M\[10\]
*196 core_read_data_M\[11\]
*197 core_read_data_M\[12\]
*198 core_read_data_M\[13\]
*199 core_read_data_M\[14\]
*200 core_read_data_M\[15\]
*201 core_read_data_M\[16\]
*202 core_read_data_M\[17\]
*203 core_read_data_M\[18\]
*204 core_read_data_M\[19\]
*205 core_read_data_M\[1\]
*206 core_read_data_M\[20\]
*207 core_read_data_M\[21\]
*208 core_read_data_M\[22\]
*209 core_read_data_M\[23\]
*210 core_read_data_M\[24\]
*211 core_read_data_M\[25\]
*212 core_read_data_M\[26\]
*213 core_read_data_M\[27\]
*214 core_read_data_M\[28\]
*215 core_read_data_M\[29\]
*216 core_read_data_M\[2\]
*217 core_read_data_M\[30\]
*218 core_read_data_M\[31\]
*219 core_read_data_M\[3\]
*220 core_read_data_M\[4\]
*221 core_read_data_M\[5\]
*222 core_read_data_M\[6\]
*223 core_read_data_M\[7\]
*224 core_read_data_M\[8\]
*225 core_read_data_M\[9\]
*226 core_write_data_M\[0\]
*227 core_write_data_M\[10\]
*228 core_write_data_M\[11\]
*229 core_write_data_M\[12\]
*230 core_write_data_M\[13\]
*231 core_write_data_M\[14\]
*232 core_write_data_M\[15\]
*233 core_write_data_M\[16\]
*234 core_write_data_M\[17\]
*235 core_write_data_M\[18\]
*236 core_write_data_M\[19\]
*237 core_write_data_M\[1\]
*238 core_write_data_M\[20\]
*239 core_write_data_M\[21\]
*240 core_write_data_M\[22\]
*241 core_write_data_M\[23\]
*242 core_write_data_M\[24\]
*243 core_write_data_M\[25\]
*244 core_write_data_M\[26\]
*245 core_write_data_M\[27\]
*246 core_write_data_M\[28\]
*247 core_write_data_M\[29\]
*248 core_write_data_M\[2\]
*249 core_write_data_M\[30\]
*250 core_write_data_M\[31\]
*251 core_write_data_M\[3\]
*252 core_write_data_M\[4\]
*253 core_write_data_M\[5\]
*254 core_write_data_M\[6\]
*255 core_write_data_M\[7\]
*256 core_write_data_M\[8\]
*257 core_write_data_M\[9\]
*258 data_mem_adr_i\[2\]
*259 data_mem_adr_i\[3\]
*260 data_mem_adr_i\[4\]
*261 data_mem_adr_i\[5\]
*262 data_mem_adr_i\[6\]
*263 data_mem_adr_i\[7\]
*264 data_reg\[10\]
*265 data_reg\[11\]
*266 data_reg\[12\]
*267 data_reg\[13\]
*268 data_reg\[14\]
*269 data_reg\[15\]
*270 data_reg\[16\]
*271 data_reg\[17\]
*272 data_reg\[18\]
*273 data_reg\[19\]
*274 data_reg\[20\]
*275 data_reg\[21\]
*276 data_reg\[22\]
*277 data_reg\[23\]
*278 data_reg\[24\]
*279 data_reg\[25\]
*280 data_reg\[26\]
*281 data_reg\[27\]
*282 data_reg\[28\]
*283 data_reg\[29\]
*284 data_reg\[30\]
*285 data_reg\[31\]
*286 data_reg\[8\]
*287 data_reg\[9\]
*288 dummy_data2\[0\]
*289 dummy_data2\[10\]
*290 dummy_data2\[11\]
*291 dummy_data2\[12\]
*292 dummy_data2\[13\]
*293 dummy_data2\[14\]
*294 dummy_data2\[15\]
*295 dummy_data2\[16\]
*296 dummy_data2\[17\]
*297 dummy_data2\[18\]
*298 dummy_data2\[19\]
*299 dummy_data2\[1\]
*300 dummy_data2\[20\]
*301 dummy_data2\[21\]
*302 dummy_data2\[22\]
*303 dummy_data2\[23\]
*304 dummy_data2\[24\]
*305 dummy_data2\[25\]
*306 dummy_data2\[26\]
*307 dummy_data2\[27\]
*308 dummy_data2\[28\]
*309 dummy_data2\[29\]
*310 dummy_data2\[2\]
*311 dummy_data2\[30\]
*312 dummy_data2\[31\]
*313 dummy_data2\[3\]
*314 dummy_data2\[4\]
*315 dummy_data2\[5\]
*316 dummy_data2\[6\]
*317 dummy_data2\[7\]
*318 dummy_data2\[8\]
*319 dummy_data2\[9\]
*320 dummy_data\[0\]
*321 dummy_data\[10\]
*322 dummy_data\[11\]
*323 dummy_data\[12\]
*324 dummy_data\[13\]
*325 dummy_data\[14\]
*326 dummy_data\[15\]
*327 dummy_data\[16\]
*328 dummy_data\[17\]
*329 dummy_data\[18\]
*330 dummy_data\[19\]
*331 dummy_data\[1\]
*332 dummy_data\[20\]
*333 dummy_data\[21\]
*334 dummy_data\[22\]
*335 dummy_data\[23\]
*336 dummy_data\[24\]
*337 dummy_data\[25\]
*338 dummy_data\[26\]
*339 dummy_data\[27\]
*340 dummy_data\[28\]
*341 dummy_data\[29\]
*342 dummy_data\[2\]
*343 dummy_data\[30\]
*344 dummy_data\[31\]
*345 dummy_data\[3\]
*346 dummy_data\[4\]
*347 dummy_data\[5\]
*348 dummy_data\[6\]
*349 dummy_data\[7\]
*350 dummy_data\[8\]
*351 dummy_data\[9\]
*352 funct3\[0\]
*353 funct3\[1\]
*354 funct3\[2\]
*355 funct3_s2\[0\]
*356 funct3_s2\[1\]
*357 funct3_s2\[2\]
*358 inst_mem_adr_i\[0\]
*359 inst_mem_adr_i\[1\]
*360 inst_mem_adr_i\[2\]
*361 inst_mem_adr_i\[3\]
*362 inst_mem_adr_i\[4\]
*363 inst_mem_adr_i\[5\]
*364 inst_mem_adr_i\[6\]
*365 inst_mem_adr_i\[7\]
*366 inst_mem_dat_i\[0\]
*367 inst_mem_dat_i\[10\]
*368 inst_mem_dat_i\[11\]
*369 inst_mem_dat_i\[12\]
*370 inst_mem_dat_i\[13\]
*371 inst_mem_dat_i\[14\]
*372 inst_mem_dat_i\[15\]
*373 inst_mem_dat_i\[16\]
*374 inst_mem_dat_i\[17\]
*375 inst_mem_dat_i\[18\]
*376 inst_mem_dat_i\[19\]
*377 inst_mem_dat_i\[1\]
*378 inst_mem_dat_i\[20\]
*379 inst_mem_dat_i\[21\]
*380 inst_mem_dat_i\[22\]
*381 inst_mem_dat_i\[23\]
*382 inst_mem_dat_i\[24\]
*383 inst_mem_dat_i\[25\]
*384 inst_mem_dat_i\[26\]
*385 inst_mem_dat_i\[27\]
*386 inst_mem_dat_i\[28\]
*387 inst_mem_dat_i\[29\]
*388 inst_mem_dat_i\[2\]
*389 inst_mem_dat_i\[30\]
*390 inst_mem_dat_i\[31\]
*391 inst_mem_dat_i\[3\]
*392 inst_mem_dat_i\[4\]
*393 inst_mem_dat_i\[5\]
*394 inst_mem_dat_i\[6\]
*395 inst_mem_dat_i\[7\]
*396 inst_mem_dat_i\[8\]
*397 inst_mem_dat_i\[9\]
*398 mux_funct3\[0\]
*399 mux_funct3\[1\]
*400 mux_funct3\[2\]
*401 mux_funct3\[3\]
*402 net1
*403 net10
*404 net100
*405 net101
*406 net102
*407 net103
*408 net104
*409 net105
*410 net106
*411 net107
*412 net108
*413 net109
*414 net11
*415 net110
*416 net111
*417 net112
*418 net113
*419 net114
*420 net115
*421 net116
*422 net117
*423 net118
*424 net119
*425 net12
*426 net120
*427 net121
*428 net122
*429 net123
*430 net124
*431 net125
*432 net126
*433 net127
*434 net128
*435 net129
*436 net13
*437 net130
*438 net131
*439 net132
*440 net133
*441 net134
*442 net135
*443 net136
*444 net137
*445 net138
*446 net139
*447 net14
*448 net140
*449 net141
*450 net142
*451 net143
*452 net144
*453 net145
*454 net146
*455 net147
*456 net148
*457 net149
*458 net15
*459 net150
*460 net151
*461 net152
*462 net153
*463 net154
*464 net155
*465 net156
*466 net157
*467 net158
*468 net159
*469 net16
*470 net160
*471 net161
*472 net162
*473 net163
*474 net164
*475 net165
*476 net166
*477 net167
*478 net168
*479 net169
*480 net17
*481 net170
*482 net171
*483 net172
*484 net173
*485 net174
*486 net175
*487 net176
*488 net177
*489 net178
*490 net179
*491 net18
*492 net180
*493 net181
*494 net182
*495 net183
*496 net184
*497 net185
*498 net186
*499 net187
*500 net188
*501 net189
*502 net19
*503 net190
*504 net191
*505 net192
*506 net193
*507 net194
*508 net195
*509 net196
*510 net197
*511 net198
*512 net199
*513 net2
*514 net20
*515 net200
*516 net201
*517 net202
*518 net203
*519 net204
*520 net205
*521 net206
*522 net207
*523 net208
*524 net209
*525 net21
*526 net210
*527 net211
*528 net212
*529 net213
*530 net214
*531 net215
*532 net216
*533 net217
*534 net218
*535 net219
*536 net22
*537 net220
*538 net221
*539 net222
*540 net223
*541 net224
*542 net225
*543 net226
*544 net227
*545 net228
*546 net229
*547 net23
*548 net230
*549 net231
*550 net232
*551 net233
*552 net234
*553 net235
*554 net236
*555 net237
*556 net238
*557 net239
*558 net24
*559 net240
*560 net241
*561 net242
*562 net243
*563 net244
*564 net245
*565 net246
*566 net247
*567 net248
*568 net249
*569 net25
*570 net250
*571 net251
*572 net252
*573 net253
*574 net254
*575 net255
*576 net256
*577 net257
*578 net258
*579 net259
*580 net26
*581 net260
*582 net261
*583 net262
*584 net263
*585 net264
*586 net265
*587 net266
*588 net267
*589 net268
*590 net269
*591 net27
*592 net270
*593 net271
*594 net272
*595 net273
*596 net274
*597 net275
*598 net276
*599 net277
*600 net278
*601 net279
*602 net28
*603 net280
*604 net281
*605 net282
*606 net283
*607 net284
*608 net285
*609 net286
*610 net287
*611 net288
*612 net289
*613 net29
*614 net290
*615 net291
*616 net292
*617 net293
*618 net294
*619 net295
*620 net296
*621 net297
*622 net298
*623 net299
*624 net3
*625 net30
*626 net300
*627 net301
*628 net302
*629 net303
*630 net304
*631 net305
*632 net306
*633 net307
*634 net308
*635 net309
*636 net31
*637 net310
*638 net311
*639 net312
*640 net313
*641 net314
*642 net315
*643 net32
*644 net323
*645 net324
*646 net325
*647 net326
*648 net327
*649 net328
*650 net329
*651 net33
*652 net330
*653 net331
*654 net332
*655 net333
*656 net334
*657 net335
*658 net336
*659 net337
*660 net338
*661 net339
*662 net34
*663 net340
*664 net341
*665 net342
*666 net343
*667 net344
*668 net345
*669 net346
*670 net347
*671 net348
*672 net349
*673 net35
*674 net350
*675 net351
*676 net352
*677 net353
*678 net354
*679 net355
*680 net356
*681 net357
*682 net358
*683 net359
*684 net36
*685 net360
*686 net361
*687 net362
*688 net363
*689 net364
*690 net365
*691 net366
*692 net367
*693 net368
*694 net369
*695 net37
*696 net370
*697 net371
*698 net372
*699 net373
*700 net374
*701 net375
*702 net376
*703 net377
*704 net378
*705 net379
*706 net38
*707 net380
*708 net381
*709 net382
*710 net383
*711 net384
*712 net385
*713 net386
*714 net387
*715 net39
*716 net390
*717 net391
*718 net392
*719 net394
*720 net396
*721 net397
*722 net399
*723 net4
*724 net40
*725 net401
*726 net403
*727 net41
*728 net416
*729 net418
*730 net419
*731 net42
*732 net423
*733 net43
*734 net433
*735 net438
*736 net44
*737 net441
*738 net45
*739 net451
*740 net454
*741 net46
*742 net460
*743 net463
*744 net466
*745 net47
*746 net479
*747 net48
*748 net49
*749 net5
*750 net50
*751 net51
*752 net52
*753 net53
*754 net54
*755 net55
*756 net56
*757 net57
*758 net58
*759 net59
*760 net6
*761 net60
*762 net61
*763 net62
*764 net63
*765 net64
*766 net65
*767 net66
*768 net67
*769 net68
*770 net69
*771 net7
*772 net70
*773 net71
*774 net72
*775 net73
*776 net74
*777 net75
*778 net76
*779 net77
*780 net78
*781 net79
*782 net8
*783 net80
*784 net81
*785 net82
*786 net83
*787 net84
*788 net85
*789 net86
*790 net87
*791 net88
*792 net89
*793 net9
*794 net90
*795 net91
*796 net92
*797 net93
*798 net94
*799 net95
*800 net96
*801 net97
*802 net98
*803 net99
*804 o_uart_tx
*805 shifted_data\[0\]
*806 shifted_data\[10\]
*807 shifted_data\[11\]
*808 shifted_data\[12\]
*809 shifted_data\[13\]
*810 shifted_data\[14\]
*811 shifted_data\[15\]
*812 shifted_data\[16\]
*813 shifted_data\[17\]
*814 shifted_data\[18\]
*815 shifted_data\[19\]
*816 shifted_data\[1\]
*817 shifted_data\[20\]
*818 shifted_data\[21\]
*819 shifted_data\[22\]
*820 shifted_data\[23\]
*821 shifted_data\[24\]
*822 shifted_data\[25\]
*823 shifted_data\[26\]
*824 shifted_data\[27\]
*825 shifted_data\[28\]
*826 shifted_data\[29\]
*827 shifted_data\[2\]
*828 shifted_data\[30\]
*829 shifted_data\[31\]
*830 shifted_data\[3\]
*831 shifted_data\[4\]
*832 shifted_data\[5\]
*833 shifted_data\[6\]
*834 shifted_data\[7\]
*835 shifted_data\[8\]
*836 shifted_data\[9\]
*837 uart_wb_adr_o\[0\]
*838 uart_wb_adr_o\[1\]
*839 uart_wb_adr_o\[2\]
*840 uart_wb_adr_o\[3\]
*841 uart_wb_adr_o\[4\]
*842 uart_wb_adr_o\[5\]
*843 uart_wb_adr_o\[6\]
*844 uart_wb_adr_o\[7\]
*845 uart_wb_cyc_o
*846 uart_wb_dat_i\[0\]
*847 uart_wb_dat_i\[10\]
*848 uart_wb_dat_i\[11\]
*849 uart_wb_dat_i\[12\]
*850 uart_wb_dat_i\[13\]
*851 uart_wb_dat_i\[14\]
*852 uart_wb_dat_i\[15\]
*853 uart_wb_dat_i\[16\]
*854 uart_wb_dat_i\[17\]
*855 uart_wb_dat_i\[18\]
*856 uart_wb_dat_i\[19\]
*857 uart_wb_dat_i\[1\]
*858 uart_wb_dat_i\[20\]
*859 uart_wb_dat_i\[21\]
*860 uart_wb_dat_i\[22\]
*861 uart_wb_dat_i\[23\]
*862 uart_wb_dat_i\[24\]
*863 uart_wb_dat_i\[25\]
*864 uart_wb_dat_i\[26\]
*865 uart_wb_dat_i\[27\]
*866 uart_wb_dat_i\[28\]
*867 uart_wb_dat_i\[29\]
*868 uart_wb_dat_i\[2\]
*869 uart_wb_dat_i\[30\]
*870 uart_wb_dat_i\[31\]
*871 uart_wb_dat_i\[3\]
*872 uart_wb_dat_i\[4\]
*873 uart_wb_dat_i\[5\]
*874 uart_wb_dat_i\[6\]
*875 uart_wb_dat_i\[7\]
*876 uart_wb_dat_i\[8\]
*877 uart_wb_dat_i\[9\]
*878 uart_wb_stb_o
*879 uart_wb_we_o
*880 write_sram_data_mem
*881 write_sram_inst_mem
*882 ANTENNA_1
*883 ANTENNA_10
*884 ANTENNA_100
*885 ANTENNA_101
*886 ANTENNA_102
*887 ANTENNA_103
*888 ANTENNA_104
*889 ANTENNA_105
*890 ANTENNA_106
*891 ANTENNA_107
*892 ANTENNA_108
*893 ANTENNA_109
*894 ANTENNA_11
*895 ANTENNA_110
*896 ANTENNA_111
*897 ANTENNA_112
*898 ANTENNA_113
*899 ANTENNA_114
*900 ANTENNA_115
*901 ANTENNA_116
*902 ANTENNA_117
*903 ANTENNA_118
*904 ANTENNA_119
*905 ANTENNA_12
*906 ANTENNA_120
*907 ANTENNA_121
*908 ANTENNA_122
*909 ANTENNA_123
*910 ANTENNA_124
*911 ANTENNA_125
*912 ANTENNA_126
*913 ANTENNA_127
*914 ANTENNA_128
*915 ANTENNA_129
*916 ANTENNA_13
*917 ANTENNA_130
*918 ANTENNA_131
*919 ANTENNA_132
*920 ANTENNA_133
*921 ANTENNA_134
*922 ANTENNA_135
*923 ANTENNA_136
*924 ANTENNA_137
*925 ANTENNA_138
*926 ANTENNA_139
*927 ANTENNA_14
*928 ANTENNA_140
*929 ANTENNA_141
*930 ANTENNA_142
*931 ANTENNA_143
*932 ANTENNA_144
*933 ANTENNA_145
*934 ANTENNA_146
*935 ANTENNA_147
*936 ANTENNA_148
*937 ANTENNA_149
*938 ANTENNA_15
*939 ANTENNA_150
*940 ANTENNA_151
*941 ANTENNA_152
*942 ANTENNA_153
*943 ANTENNA_154
*944 ANTENNA_155
*945 ANTENNA_156
*946 ANTENNA_157
*947 ANTENNA_158
*948 ANTENNA_159
*949 ANTENNA_16
*950 ANTENNA_160
*951 ANTENNA_161
*952 ANTENNA_162
*953 ANTENNA_163
*954 ANTENNA_164
*955 ANTENNA_165
*956 ANTENNA_166
*957 ANTENNA_167
*958 ANTENNA_168
*959 ANTENNA_169
*960 ANTENNA_17
*961 ANTENNA_170
*962 ANTENNA_171
*963 ANTENNA_172
*964 ANTENNA_173
*965 ANTENNA_174
*966 ANTENNA_175
*967 ANTENNA_176
*968 ANTENNA_177
*969 ANTENNA_178
*970 ANTENNA_179
*971 ANTENNA_18
*972 ANTENNA_180
*973 ANTENNA_181
*974 ANTENNA_182
*975 ANTENNA_183
*976 ANTENNA_184
*977 ANTENNA_185
*978 ANTENNA_186
*979 ANTENNA_187
*980 ANTENNA_188
*981 ANTENNA_189
*982 ANTENNA_19
*983 ANTENNA_190
*984 ANTENNA_191
*985 ANTENNA_192
*986 ANTENNA_193
*987 ANTENNA_194
*988 ANTENNA_195
*989 ANTENNA_196
*990 ANTENNA_197
*991 ANTENNA_198
*992 ANTENNA_199
*993 ANTENNA_2
*994 ANTENNA_20
*995 ANTENNA_200
*996 ANTENNA_201
*997 ANTENNA_202
*998 ANTENNA_203
*999 ANTENNA_204
*1000 ANTENNA_205
*1001 ANTENNA_206
*1002 ANTENNA_207
*1003 ANTENNA_208
*1004 ANTENNA_209
*1005 ANTENNA_21
*1006 ANTENNA_210
*1007 ANTENNA_211
*1008 ANTENNA_212
*1009 ANTENNA_213
*1010 ANTENNA_214
*1011 ANTENNA_215
*1012 ANTENNA_216
*1013 ANTENNA_217
*1014 ANTENNA_218
*1015 ANTENNA_219
*1016 ANTENNA_22
*1017 ANTENNA_220
*1018 ANTENNA_221
*1019 ANTENNA_222
*1020 ANTENNA_223
*1021 ANTENNA_224
*1022 ANTENNA_225
*1023 ANTENNA_226
*1024 ANTENNA_227
*1025 ANTENNA_228
*1026 ANTENNA_229
*1027 ANTENNA_23
*1028 ANTENNA_230
*1029 ANTENNA_231
*1030 ANTENNA_232
*1031 ANTENNA_233
*1032 ANTENNA_234
*1033 ANTENNA_235
*1034 ANTENNA_236
*1035 ANTENNA_237
*1036 ANTENNA_238
*1037 ANTENNA_239
*1038 ANTENNA_24
*1039 ANTENNA_240
*1040 ANTENNA_241
*1041 ANTENNA_242
*1042 ANTENNA_243
*1043 ANTENNA_244
*1044 ANTENNA_245
*1045 ANTENNA_246
*1046 ANTENNA_247
*1047 ANTENNA_248
*1048 ANTENNA_249
*1049 ANTENNA_25
*1050 ANTENNA_250
*1051 ANTENNA_251
*1052 ANTENNA_252
*1053 ANTENNA_253
*1054 ANTENNA_254
*1055 ANTENNA_255
*1056 ANTENNA_256
*1057 ANTENNA_257
*1058 ANTENNA_258
*1059 ANTENNA_259
*1060 ANTENNA_26
*1061 ANTENNA_260
*1062 ANTENNA_261
*1063 ANTENNA_262
*1064 ANTENNA_263
*1065 ANTENNA_264
*1066 ANTENNA_265
*1067 ANTENNA_266
*1068 ANTENNA_267
*1069 ANTENNA_268
*1070 ANTENNA_269
*1071 ANTENNA_27
*1072 ANTENNA_270
*1073 ANTENNA_271
*1074 ANTENNA_272
*1075 ANTENNA_273
*1076 ANTENNA_274
*1077 ANTENNA_275
*1078 ANTENNA_276
*1079 ANTENNA_277
*1080 ANTENNA_278
*1081 ANTENNA_279
*1082 ANTENNA_28
*1083 ANTENNA_280
*1084 ANTENNA_281
*1085 ANTENNA_282
*1086 ANTENNA_283
*1087 ANTENNA_284
*1088 ANTENNA_285
*1089 ANTENNA_286
*1090 ANTENNA_287
*1091 ANTENNA_288
*1092 ANTENNA_289
*1093 ANTENNA_29
*1094 ANTENNA_290
*1095 ANTENNA_291
*1096 ANTENNA_292
*1097 ANTENNA_293
*1098 ANTENNA_294
*1099 ANTENNA_295
*1100 ANTENNA_296
*1101 ANTENNA_297
*1102 ANTENNA_298
*1103 ANTENNA_299
*1104 ANTENNA_3
*1105 ANTENNA_30
*1106 ANTENNA_300
*1107 ANTENNA_301
*1108 ANTENNA_302
*1109 ANTENNA_303
*1110 ANTENNA_304
*1111 ANTENNA_305
*1112 ANTENNA_306
*1113 ANTENNA_307
*1114 ANTENNA_308
*1115 ANTENNA_309
*1116 ANTENNA_31
*1117 ANTENNA_310
*1118 ANTENNA_311
*1119 ANTENNA_312
*1120 ANTENNA_313
*1121 ANTENNA_314
*1122 ANTENNA_315
*1123 ANTENNA_316
*1124 ANTENNA_317
*1125 ANTENNA_318
*1126 ANTENNA_319
*1127 ANTENNA_32
*1128 ANTENNA_320
*1129 ANTENNA_321
*1130 ANTENNA_322
*1131 ANTENNA_323
*1132 ANTENNA_324
*1133 ANTENNA_325
*1134 ANTENNA_326
*1135 ANTENNA_327
*1136 ANTENNA_328
*1137 ANTENNA_329
*1138 ANTENNA_33
*1139 ANTENNA_330
*1140 ANTENNA_331
*1141 ANTENNA_332
*1142 ANTENNA_333
*1143 ANTENNA_334
*1144 ANTENNA_335
*1145 ANTENNA_336
*1146 ANTENNA_337
*1147 ANTENNA_338
*1148 ANTENNA_339
*1149 ANTENNA_34
*1150 ANTENNA_340
*1151 ANTENNA_341
*1152 ANTENNA_342
*1153 ANTENNA_343
*1154 ANTENNA_344
*1155 ANTENNA_345
*1156 ANTENNA_346
*1157 ANTENNA_347
*1158 ANTENNA_348
*1159 ANTENNA_349
*1160 ANTENNA_35
*1161 ANTENNA_350
*1162 ANTENNA_351
*1163 ANTENNA_352
*1164 ANTENNA_353
*1165 ANTENNA_354
*1166 ANTENNA_355
*1167 ANTENNA_356
*1168 ANTENNA_357
*1169 ANTENNA_358
*1170 ANTENNA_359
*1171 ANTENNA_36
*1172 ANTENNA_360
*1173 ANTENNA_361
*1174 ANTENNA_362
*1175 ANTENNA_363
*1176 ANTENNA_364
*1177 ANTENNA_365
*1178 ANTENNA_366
*1179 ANTENNA_367
*1180 ANTENNA_368
*1181 ANTENNA_369
*1182 ANTENNA_37
*1183 ANTENNA_370
*1184 ANTENNA_371
*1185 ANTENNA_372
*1186 ANTENNA_373
*1187 ANTENNA_374
*1188 ANTENNA_375
*1189 ANTENNA_376
*1190 ANTENNA_377
*1191 ANTENNA_378
*1192 ANTENNA_379
*1193 ANTENNA_38
*1194 ANTENNA_380
*1195 ANTENNA_381
*1196 ANTENNA_382
*1197 ANTENNA_383
*1198 ANTENNA_384
*1199 ANTENNA_385
*1200 ANTENNA_386
*1201 ANTENNA_387
*1202 ANTENNA_388
*1203 ANTENNA_389
*1204 ANTENNA_39
*1205 ANTENNA_390
*1206 ANTENNA_391
*1207 ANTENNA_392
*1208 ANTENNA_393
*1209 ANTENNA_394
*1210 ANTENNA_395
*1211 ANTENNA_396
*1212 ANTENNA_397
*1213 ANTENNA_398
*1214 ANTENNA_399
*1215 ANTENNA_4
*1216 ANTENNA_40
*1217 ANTENNA_400
*1218 ANTENNA_401
*1219 ANTENNA_402
*1220 ANTENNA_403
*1221 ANTENNA_404
*1222 ANTENNA_405
*1223 ANTENNA_406
*1224 ANTENNA_407
*1225 ANTENNA_408
*1226 ANTENNA_409
*1227 ANTENNA_41
*1228 ANTENNA_410
*1229 ANTENNA_411
*1230 ANTENNA_412
*1231 ANTENNA_413
*1232 ANTENNA_414
*1233 ANTENNA_415
*1234 ANTENNA_416
*1235 ANTENNA_417
*1236 ANTENNA_418
*1237 ANTENNA_419
*1238 ANTENNA_42
*1239 ANTENNA_420
*1240 ANTENNA_421
*1241 ANTENNA_422
*1242 ANTENNA_423
*1243 ANTENNA_424
*1244 ANTENNA_425
*1245 ANTENNA_426
*1246 ANTENNA_427
*1247 ANTENNA_428
*1248 ANTENNA_429
*1249 ANTENNA_43
*1250 ANTENNA_430
*1251 ANTENNA_431
*1252 ANTENNA_432
*1253 ANTENNA_433
*1254 ANTENNA_434
*1255 ANTENNA_435
*1256 ANTENNA_436
*1257 ANTENNA_437
*1258 ANTENNA_438
*1259 ANTENNA_439
*1260 ANTENNA_44
*1261 ANTENNA_440
*1262 ANTENNA_441
*1263 ANTENNA_442
*1264 ANTENNA_443
*1265 ANTENNA_444
*1266 ANTENNA_445
*1267 ANTENNA_446
*1268 ANTENNA_447
*1269 ANTENNA_448
*1270 ANTENNA_449
*1271 ANTENNA_45
*1272 ANTENNA_450
*1273 ANTENNA_451
*1274 ANTENNA_452
*1275 ANTENNA_453
*1276 ANTENNA_454
*1277 ANTENNA_455
*1278 ANTENNA_456
*1279 ANTENNA_457
*1280 ANTENNA_458
*1281 ANTENNA_459
*1282 ANTENNA_46
*1283 ANTENNA_460
*1284 ANTENNA_461
*1285 ANTENNA_462
*1286 ANTENNA_463
*1287 ANTENNA_464
*1288 ANTENNA_465
*1289 ANTENNA_466
*1290 ANTENNA_467
*1291 ANTENNA_468
*1292 ANTENNA_469
*1293 ANTENNA_47
*1294 ANTENNA_470
*1295 ANTENNA_471
*1296 ANTENNA_472
*1297 ANTENNA_473
*1298 ANTENNA_474
*1299 ANTENNA_475
*1300 ANTENNA_476
*1301 ANTENNA_477
*1302 ANTENNA_478
*1303 ANTENNA_479
*1304 ANTENNA_48
*1305 ANTENNA_480
*1306 ANTENNA_481
*1307 ANTENNA_482
*1308 ANTENNA_483
*1309 ANTENNA_484
*1310 ANTENNA_485
*1311 ANTENNA_486
*1312 ANTENNA_487
*1313 ANTENNA_488
*1314 ANTENNA_489
*1315 ANTENNA_49
*1316 ANTENNA_490
*1317 ANTENNA_491
*1318 ANTENNA_492
*1319 ANTENNA_493
*1320 ANTENNA_494
*1321 ANTENNA_495
*1322 ANTENNA_496
*1323 ANTENNA_497
*1324 ANTENNA_498
*1325 ANTENNA_499
*1326 ANTENNA_5
*1327 ANTENNA_50
*1328 ANTENNA_500
*1329 ANTENNA_501
*1330 ANTENNA_502
*1331 ANTENNA_503
*1332 ANTENNA_504
*1333 ANTENNA_505
*1334 ANTENNA_506
*1335 ANTENNA_507
*1336 ANTENNA_508
*1337 ANTENNA_51
*1338 ANTENNA_52
*1339 ANTENNA_53
*1340 ANTENNA_54
*1341 ANTENNA_55
*1342 ANTENNA_56
*1343 ANTENNA_57
*1344 ANTENNA_58
*1345 ANTENNA_59
*1346 ANTENNA_6
*1347 ANTENNA_60
*1348 ANTENNA_61
*1349 ANTENNA_62
*1350 ANTENNA_63
*1351 ANTENNA_64
*1352 ANTENNA_65
*1353 ANTENNA_66
*1354 ANTENNA_67
*1355 ANTENNA_68
*1356 ANTENNA_69
*1357 ANTENNA_7
*1358 ANTENNA_70
*1359 ANTENNA_71
*1360 ANTENNA_72
*1361 ANTENNA_73
*1362 ANTENNA_74
*1363 ANTENNA_75
*1364 ANTENNA_76
*1365 ANTENNA_77
*1366 ANTENNA_78
*1367 ANTENNA_79
*1368 ANTENNA_8
*1369 ANTENNA_80
*1370 ANTENNA_81
*1371 ANTENNA_82
*1372 ANTENNA_83
*1373 ANTENNA_84
*1374 ANTENNA_85
*1375 ANTENNA_86
*1376 ANTENNA_87
*1377 ANTENNA_88
*1378 ANTENNA_89
*1379 ANTENNA_9
*1380 ANTENNA_90
*1381 ANTENNA_91
*1382 ANTENNA_92
*1383 ANTENNA_93
*1384 ANTENNA_94
*1385 ANTENNA_95
*1386 ANTENNA_96
*1387 ANTENNA_97
*1388 ANTENNA_98
*1389 ANTENNA_99
*1390 ANTENNA_U_CORE_clk
*1391 ANTENNA_U_CORE_i_instr_ID\[0\]
*1392 ANTENNA_U_CORE_i_instr_ID\[10\]
*1393 ANTENNA_U_CORE_i_instr_ID\[12\]
*1394 ANTENNA_U_CORE_i_instr_ID\[13\]
*1395 ANTENNA_U_CORE_i_instr_ID\[14\]
*1396 ANTENNA_U_CORE_i_instr_ID\[15\]
*1397 ANTENNA_U_CORE_i_instr_ID\[16\]
*1398 ANTENNA_U_CORE_i_instr_ID\[17\]
*1399 ANTENNA_U_CORE_i_instr_ID\[19\]
*1400 ANTENNA_U_CORE_i_instr_ID\[20\]
*1401 ANTENNA_U_CORE_i_instr_ID\[21\]
*1402 ANTENNA_U_CORE_i_instr_ID\[22\]
*1403 ANTENNA_U_CORE_i_instr_ID\[23\]
*1404 ANTENNA_U_CORE_i_instr_ID\[24\]
*1405 ANTENNA_U_CORE_i_instr_ID\[26\]
*1406 ANTENNA_U_CORE_i_instr_ID\[27\]
*1407 ANTENNA_U_CORE_i_instr_ID\[28\]
*1408 ANTENNA_U_CORE_i_instr_ID\[29\]
*1409 ANTENNA_U_CORE_i_instr_ID\[2\]
*1410 ANTENNA_U_CORE_i_instr_ID\[30\]
*1411 ANTENNA_U_CORE_i_instr_ID\[3\]
*1412 ANTENNA_U_CORE_i_instr_ID\[5\]
*1413 ANTENNA_U_CORE_i_instr_ID\[6\]
*1414 ANTENNA_U_CORE_i_instr_ID\[7\]
*1415 ANTENNA_U_CORE_i_instr_ID\[9\]
*1416 ANTENNA_U_CORE_i_read_data_M\[0\]
*1417 ANTENNA_U_CORE_i_read_data_M\[10\]
*1418 ANTENNA_U_CORE_i_read_data_M\[11\]
*1419 ANTENNA_U_CORE_i_read_data_M\[12\]
*1420 ANTENNA_U_CORE_i_read_data_M\[14\]
*1421 ANTENNA_U_CORE_i_read_data_M\[15\]
*1422 ANTENNA_U_CORE_i_read_data_M\[17\]
*1423 ANTENNA_U_CORE_i_read_data_M\[18\]
*1424 ANTENNA_U_CORE_i_read_data_M\[19\]
*1425 ANTENNA_U_CORE_i_read_data_M\[1\]
*1426 ANTENNA_U_CORE_i_read_data_M\[20\]
*1427 ANTENNA_U_CORE_i_read_data_M\[22\]
*1428 ANTENNA_U_CORE_i_read_data_M\[23\]
*1429 ANTENNA_U_CORE_i_read_data_M\[24\]
*1430 ANTENNA_U_CORE_i_read_data_M\[25\]
*1431 ANTENNA_U_CORE_i_read_data_M\[26\]
*1432 ANTENNA_U_CORE_i_read_data_M\[27\]
*1433 ANTENNA_U_CORE_i_read_data_M\[28\]
*1434 ANTENNA_U_CORE_i_read_data_M\[29\]
*1435 ANTENNA_U_CORE_i_read_data_M\[2\]
*1436 ANTENNA_U_CORE_i_read_data_M\[30\]
*1437 ANTENNA_U_CORE_i_read_data_M\[31\]
*1438 ANTENNA_U_CORE_i_read_data_M\[3\]
*1439 ANTENNA_U_CORE_i_read_data_M\[4\]
*1440 ANTENNA_U_CORE_i_read_data_M\[5\]
*1441 ANTENNA_U_CORE_i_read_data_M\[6\]
*1442 ANTENNA_U_CORE_i_read_data_M\[7\]
*1443 ANTENNA_U_CORE_i_read_data_M\[8\]
*1444 ANTENNA_U_CORE_i_read_data_M\[9\]
*1445 ANTENNA_U_CORE_rst
*1446 ANTENNA_U_DATA_MEM_clk0
*1447 ANTENNA_U_DATA_MEM_din0\[0\]
*1448 ANTENNA_U_DATA_MEM_din0\[10\]
*1449 ANTENNA_U_DATA_MEM_din0\[11\]
*1450 ANTENNA_U_DATA_MEM_din0\[12\]
*1451 ANTENNA_U_DATA_MEM_din0\[13\]
*1452 ANTENNA_U_DATA_MEM_din0\[14\]
*1453 ANTENNA_U_DATA_MEM_din0\[15\]
*1454 ANTENNA_U_DATA_MEM_din0\[16\]
*1455 ANTENNA_U_DATA_MEM_din0\[17\]
*1456 ANTENNA_U_DATA_MEM_din0\[18\]
*1457 ANTENNA_U_DATA_MEM_din0\[19\]
*1458 ANTENNA_U_DATA_MEM_din0\[1\]
*1459 ANTENNA_U_DATA_MEM_din0\[20\]
*1460 ANTENNA_U_DATA_MEM_din0\[21\]
*1461 ANTENNA_U_DATA_MEM_din0\[22\]
*1462 ANTENNA_U_DATA_MEM_din0\[23\]
*1463 ANTENNA_U_DATA_MEM_din0\[24\]
*1464 ANTENNA_U_DATA_MEM_din0\[25\]
*1465 ANTENNA_U_DATA_MEM_din0\[26\]
*1466 ANTENNA_U_DATA_MEM_din0\[27\]
*1467 ANTENNA_U_DATA_MEM_din0\[28\]
*1468 ANTENNA_U_DATA_MEM_din0\[29\]
*1469 ANTENNA_U_DATA_MEM_din0\[2\]
*1470 ANTENNA_U_DATA_MEM_din0\[30\]
*1471 ANTENNA_U_DATA_MEM_din0\[31\]
*1472 ANTENNA_U_DATA_MEM_din0\[3\]
*1473 ANTENNA_U_DATA_MEM_din0\[4\]
*1474 ANTENNA_U_DATA_MEM_din0\[5\]
*1475 ANTENNA_U_DATA_MEM_din0\[6\]
*1476 ANTENNA_U_DATA_MEM_din0\[7\]
*1477 ANTENNA_U_DATA_MEM_din0\[8\]
*1478 ANTENNA_U_DATA_MEM_din0\[9\]
*1479 ANTENNA_U_DATA_MEM_web0
*1480 ANTENNA_U_INST_MEM_clk0
*1481 ANTENNA_U_INST_MEM_din0\[0\]
*1482 ANTENNA_U_INST_MEM_din0\[10\]
*1483 ANTENNA_U_INST_MEM_din0\[11\]
*1484 ANTENNA_U_INST_MEM_din0\[12\]
*1485 ANTENNA_U_INST_MEM_din0\[13\]
*1486 ANTENNA_U_INST_MEM_din0\[14\]
*1487 ANTENNA_U_INST_MEM_din0\[15\]
*1488 ANTENNA_U_INST_MEM_din0\[16\]
*1489 ANTENNA_U_INST_MEM_din0\[17\]
*1490 ANTENNA_U_INST_MEM_din0\[18\]
*1491 ANTENNA_U_INST_MEM_din0\[19\]
*1492 ANTENNA_U_INST_MEM_din0\[1\]
*1493 ANTENNA_U_INST_MEM_din0\[20\]
*1494 ANTENNA_U_INST_MEM_din0\[21\]
*1495 ANTENNA_U_INST_MEM_din0\[22\]
*1496 ANTENNA_U_INST_MEM_din0\[23\]
*1497 ANTENNA_U_INST_MEM_din0\[24\]
*1498 ANTENNA_U_INST_MEM_din0\[25\]
*1499 ANTENNA_U_INST_MEM_din0\[26\]
*1500 ANTENNA_U_INST_MEM_din0\[27\]
*1501 ANTENNA_U_INST_MEM_din0\[28\]
*1502 ANTENNA_U_INST_MEM_din0\[29\]
*1503 ANTENNA_U_INST_MEM_din0\[2\]
*1504 ANTENNA_U_INST_MEM_din0\[30\]
*1505 ANTENNA_U_INST_MEM_din0\[31\]
*1506 ANTENNA_U_INST_MEM_din0\[3\]
*1507 ANTENNA_U_INST_MEM_din0\[4\]
*1508 ANTENNA_U_INST_MEM_din0\[5\]
*1509 ANTENNA_U_INST_MEM_din0\[6\]
*1510 ANTENNA_U_INST_MEM_din0\[7\]
*1511 ANTENNA_U_INST_MEM_din0\[8\]
*1512 ANTENNA_U_INST_MEM_din0\[9\]
*1513 ANTENNA_U_INST_MEM_web0
*1514 ANTENNA_U_UART_WB_BRIDGE_clk
*1515 ANTENNA_U_UART_WB_BRIDGE_i_start_rx
*1516 ANTENNA_U_UART_WB_BRIDGE_i_uart_rx
*1517 ANTENNA_U_UART_WB_BRIDGE_rst
*1518 ANTENNA_U_UART_WB_BRIDGE_wb_dat_i\[0\]
*1519 ANTENNA_U_UART_WB_BRIDGE_wb_dat_i\[10\]
*1520 ANTENNA_U_UART_WB_BRIDGE_wb_dat_i\[11\]
*1521 ANTENNA_U_UART_WB_BRIDGE_wb_dat_i\[12\]
*1522 ANTENNA_U_UART_WB_BRIDGE_wb_dat_i\[13\]
*1523 ANTENNA_U_UART_WB_BRIDGE_wb_dat_i\[14\]
*1524 ANTENNA_U_UART_WB_BRIDGE_wb_dat_i\[16\]
*1525 ANTENNA_U_UART_WB_BRIDGE_wb_dat_i\[17\]
*1526 ANTENNA_U_UART_WB_BRIDGE_wb_dat_i\[18\]
*1527 ANTENNA_U_UART_WB_BRIDGE_wb_dat_i\[19\]
*1528 ANTENNA_U_UART_WB_BRIDGE_wb_dat_i\[1\]
*1529 ANTENNA_U_UART_WB_BRIDGE_wb_dat_i\[20\]
*1530 ANTENNA_U_UART_WB_BRIDGE_wb_dat_i\[21\]
*1531 ANTENNA_U_UART_WB_BRIDGE_wb_dat_i\[23\]
*1532 ANTENNA_U_UART_WB_BRIDGE_wb_dat_i\[24\]
*1533 ANTENNA_U_UART_WB_BRIDGE_wb_dat_i\[25\]
*1534 ANTENNA_U_UART_WB_BRIDGE_wb_dat_i\[26\]
*1535 ANTENNA_U_UART_WB_BRIDGE_wb_dat_i\[27\]
*1536 ANTENNA_U_UART_WB_BRIDGE_wb_dat_i\[28\]
*1537 ANTENNA_U_UART_WB_BRIDGE_wb_dat_i\[29\]
*1538 ANTENNA_U_UART_WB_BRIDGE_wb_dat_i\[2\]