*SPEF "ieee 1481-1999"
*DESIGN "uart_wbs_bridge"
*DATE "11:11:11 Fri 11 11, 1111"
*VENDOR "OpenRCX"
*PROGRAM "Parallel Extraction"
*VERSION "1.0"
*DESIGN_FLOW "NAME_SCOPE LOCAL" "PIN_CAP NONE"
*DIVIDER /
*DELIMITER :
*BUS_DELIMITER []
*T_UNIT 1 NS
*C_UNIT 1 PF
*R_UNIT 1 OHM
*L_UNIT 1 HENRY

*NAME_MAP
*1 clk
*2 i_start_rx
*3 i_uart_rx
*4 o_uart_tx
*5 rst
*8 wb_ack_i
*9 wb_adr_o[0]
*10 wb_adr_o[10]
*11 wb_adr_o[11]
*12 wb_adr_o[12]
*13 wb_adr_o[13]
*14 wb_adr_o[14]
*15 wb_adr_o[15]
*16 wb_adr_o[1]
*17 wb_adr_o[2]
*18 wb_adr_o[3]
*19 wb_adr_o[4]
*20 wb_adr_o[5]
*21 wb_adr_o[6]
*22 wb_adr_o[7]
*23 wb_adr_o[8]
*24 wb_adr_o[9]
*25 wb_cyc_o
*26 wb_dat_i[0]
*27 wb_dat_i[10]
*28 wb_dat_i[11]
*29 wb_dat_i[12]
*30 wb_dat_i[13]
*31 wb_dat_i[14]
*32 wb_dat_i[15]
*33 wb_dat_i[16]
*34 wb_dat_i[17]
*35 wb_dat_i[18]
*36 wb_dat_i[19]
*37 wb_dat_i[1]
*38 wb_dat_i[20]
*39 wb_dat_i[21]
*40 wb_dat_i[22]
*41 wb_dat_i[23]
*42 wb_dat_i[24]
*43 wb_dat_i[25]
*44 wb_dat_i[26]
*45 wb_dat_i[27]
*46 wb_dat_i[28]
*47 wb_dat_i[29]
*48 wb_dat_i[2]
*49 wb_dat_i[30]
*50 wb_dat_i[31]
*51 wb_dat_i[3]
*52 wb_dat_i[4]
*53 wb_dat_i[5]
*54 wb_dat_i[6]
*55 wb_dat_i[7]
*56 wb_dat_i[8]
*57 wb_dat_i[9]
*58 wb_dat_o[0]
*59 wb_dat_o[10]
*60 wb_dat_o[11]
*61 wb_dat_o[12]
*62 wb_dat_o[13]
*63 wb_dat_o[14]
*64 wb_dat_o[15]
*65 wb_dat_o[16]
*66 wb_dat_o[17]
*67 wb_dat_o[18]
*68 wb_dat_o[19]
*69 wb_dat_o[1]
*70 wb_dat_o[20]
*71 wb_dat_o[21]
*72 wb_dat_o[22]
*73 wb_dat_o[23]
*74 wb_dat_o[24]
*75 wb_dat_o[25]
*76 wb_dat_o[26]
*77 wb_dat_o[27]
*78 wb_dat_o[28]
*79 wb_dat_o[29]
*80 wb_dat_o[2]
*81 wb_dat_o[30]
*82 wb_dat_o[31]
*83 wb_dat_o[3]
*84 wb_dat_o[4]
*85 wb_dat_o[5]
*86 wb_dat_o[6]
*87 wb_dat_o[7]
*88 wb_dat_o[8]
*89 wb_dat_o[9]
*90 wb_stb_o
*91 wb_we_o
*92 _0000_
*93 _0001_
*94 _0002_
*95 _0003_
*96 _0004_
*97 _0005_
*98 _0006_
*99 _0007_
*100 _0008_
*101 _0009_
*102 _0010_
*103 _0011_
*104 _0012_
*105 _0013_
*106 _0014_
*107 _0015_
*108 _0016_
*109 _0017_
*110 _0018_
*111 _0019_
*112 _0020_
*113 _0021_
*114 _0022_
*115 _0023_
*116 _0024_
*117 _0025_
*118 _0026_
*119 _0027_
*120 _0028_
*121 _0029_
*122 _0030_
*123 _0031_
*124 _0032_
*125 _0033_
*126 _0034_
*127 _0035_
*128 _0036_
*129 _0037_
*130 _0038_
*131 _0039_
*132 _0040_
*133 _0041_
*134 _0042_
*135 _0043_
*136 _0044_
*137 _0045_
*138 _0046_
*139 _0047_
*140 _0048_
*141 _0049_
*142 _0050_
*143 _0051_
*144 _0052_
*145 _0053_
*146 _0054_
*147 _0055_
*148 _0056_
*149 _0057_
*150 _0058_
*151 _0059_
*152 _0060_
*153 _0061_
*154 _0062_
*155 _0063_
*156 _0064_
*157 _0065_
*158 _0066_
*159 _0067_
*160 _0068_
*161 _0069_
*162 _0070_
*163 _0071_
*164 _0072_
*165 _0073_
*166 _0074_
*167 _0075_
*168 _0076_
*169 _0077_
*170 _0078_
*171 _0079_
*172 _0080_
*173 _0081_
*174 _0082_
*175 _0083_
*176 _0084_
*177 _0085_
*178 _0086_
*179 _0087_
*180 _0088_
*181 _0089_
*182 _0090_
*183 _0091_
*184 _0092_
*185 _0093_
*186 _0094_
*187 _0095_
*188 _0096_
*189 _0097_
*190 _0098_
*191 _0099_
*192 _0100_
*193 _0101_
*194 _0102_
*195 _0103_
*196 _0104_
*197 _0105_
*198 _0106_
*199 _0107_
*200 _0108_
*201 _0109_
*202 _0110_
*203 _0111_
*204 _0112_
*205 _0113_
*206 _0114_
*207 _0115_
*208 _0116_
*209 _0117_
*210 _0118_
*211 _0119_
*212 _0120_
*213 _0121_
*214 _0122_
*215 _0123_
*216 _0124_
*217 _0125_
*218 _0126_
*219 _0127_
*220 _0128_
*221 _0129_
*222 _0130_
*223 _0131_
*224 _0132_
*225 _0133_
*226 _0134_
*227 _0135_
*228 _0136_
*229 _0137_
*230 _0138_
*231 _0139_
*232 _0140_
*233 _0141_
*234 _0142_
*235 _0143_
*236 _0144_
*237 _0145_
*238 _0146_
*239 _0147_
*240 _0148_
*241 _0149_
*242 _0150_
*243 _0151_
*244 _0152_
*245 _0153_
*246 _0154_
*247 _0155_
*248 _0156_
*249 _0157_
*250 _0158_
*251 _0159_
*252 _0160_
*253 _0161_
*254 _0162_
*255 _0163_
*256 _0164_
*257 _0165_
*258 _0166_
*259 _0167_
*260 _0168_
*261 _0169_
*262 _0170_
*263 _0171_
*264 _0172_
*265 _0173_
*266 _0174_
*267 _0175_
*268 _0176_
*269 _0177_
*270 _0178_
*271 _0179_
*272 _0180_
*273 _0181_
*274 _0182_
*275 _0183_
*276 _0184_
*277 _0185_
*278 _0186_
*279 _0187_
*280 _0188_
*281 _0189_
*282 _0190_
*283 _0191_
*284 _0192_
*285 _0193_
*286 _0194_
*287 _0195_
*288 _0196_
*289 _0197_
*290 _0198_
*291 _0199_
*292 _0200_
*293 _0201_
*294 _0202_
*295 _0203_
*296 _0204_
*297 _0205_
*298 _0206_
*299 _0207_
*300 _0208_
*301 _0209_
*302 _0210_
*303 _0211_
*304 _0212_
*305 _0213_
*306 _0214_
*307 _0215_
*308 _0216_
*309 _0217_
*310 _0218_
*311 _0219_
*312 _0220_
*313 _0221_
*314 _0222_
*315 _0223_
*316 _0224_
*317 _0225_
*318 _0226_
*319 _0227_
*320 _0228_
*321 _0229_
*322 _0230_
*323 _0231_
*324 _0232_
*325 _0233_
*326 _0234_
*327 _0235_
*328 _0236_
*329 _0237_
*330 _0238_
*331 _0239_
*332 _0240_
*333 _0241_
*334 _0242_
*335 _0243_
*336 _0244_
*337 _0245_
*338 _0246_
*339 _0247_
*340 _0248_
*341 _0249_
*342 _0250_
*343 _0251_
*344 _0252_
*345 _0253_
*346 _0254_
*347 _0255_
*348 _0256_
*349 _0257_
*350 _0258_
*351 _0259_
*352 _0260_
*353 _0261_
*354 _0262_
*355 _0263_
*356 _0264_
*357 _0265_
*358 _0266_
*359 _0267_
*360 _0268_
*361 _0269_
*362 _0270_
*363 _0271_
*364 _0272_
*365 _0273_
*366 _0274_
*367 _0275_
*368 _0276_
*369 _0277_
*370 _0278_
*371 _0279_
*372 _0280_
*373 _0281_
*374 _0282_
*375 _0283_
*376 _0284_
*377 _0285_
*378 _0286_
*379 _0287_
*380 _0288_
*381 _0289_
*382 _0290_
*383 _0291_
*384 _0292_
*385 _0293_
*386 _0294_
*387 _0295_
*388 _0296_
*389 _0297_
*390 _0298_
*391 _0299_
*392 _0300_
*393 _0301_
*394 _0302_
*395 _0303_
*396 _0304_
*397 _0305_
*398 _0306_
*399 _0307_
*400 _0308_
*401 _0309_
*402 _0310_
*403 _0311_
*404 _0312_
*405 _0313_
*406 _0314_
*407 _0315_
*408 _0316_
*409 _0317_
*410 _0318_
*411 _0319_
*412 _0320_
*413 _0321_
*414 _0322_
*415 _0323_
*416 _0324_
*417 _0325_
*418 _0326_
*419 _0327_
*420 _0328_
*421 _0329_
*422 _0330_
*423 _0331_
*424 _0332_
*425 _0333_
*426 _0334_
*427 _0335_
*428 _0336_
*429 _0337_
*430 _0338_
*431 _0339_
*432 _0340_
*433 _0341_
*434 _0342_
*435 _0343_
*436 _0344_
*437 _0345_
*438 _0346_
*439 _0347_
*440 _0348_
*441 _0349_
*442 _0350_
*443 _0351_
*444 _0352_
*445 _0353_
*446 _0354_
*447 _0355_
*448 _0356_
*449 _0357_
*450 _0358_
*451 _0359_
*452 _0360_
*453 _0361_
*454 _0362_
*455 _0363_
*456 _0364_
*457 _0365_
*458 _0366_
*459 _0367_
*460 _0368_
*461 _0369_
*462 _0370_
*463 _0371_
*464 _0372_
*465 _0373_
*466 _0374_
*467 _0375_
*468 _0376_
*469 _0377_
*470 _0378_
*471 _0379_
*472 _0380_
*473 _0381_
*474 _0382_
*475 _0383_
*476 _0384_
*477 _0385_
*478 _0386_
*479 _0387_
*480 _0388_
*481 _0389_
*482 _0390_
*483 _0391_
*484 _0392_
*485 _0393_
*486 _0394_
*487 _0395_
*488 _0396_
*489 _0397_
*490 _0398_
*491 _0399_
*492 _0400_
*493 _0401_
*494 _0402_
*495 _0403_
*496 _0404_
*497 _0405_
*498 _0406_
*499 _0407_
*500 _0408_
*501 _0409_
*502 _0410_
*503 _0411_
*504 _0412_
*505 _0413_
*506 _0414_
*507 _0415_
*508 _0416_
*509 _0417_
*510 _0418_
*511 _0419_
*512 _0420_
*513 _0421_
*514 _0422_
*515 _0423_
*516 _0424_
*517 _0425_
*518 _0426_
*519 _0427_
*520 _0428_
*521 _0429_
*522 _0430_
*523 _0431_
*524 _0432_
*525 _0433_
*526 _0434_
*527 _0435_
*528 _0436_
*529 _0437_
*530 _0438_
*531 _0439_
*532 _0440_
*533 _0441_
*534 _0442_
*535 _0443_
*536 _0444_
*537 _0445_
*538 _0446_
*539 _0447_
*540 _0448_
*541 _0449_
*542 _0450_
*543 _0451_
*544 _0452_
*545 _0453_
*546 _0454_
*547 _0455_
*548 _0456_
*549 _0457_
*550 _0458_
*551 _0459_
*552 _0460_
*553 _0461_
*554 _0462_
*555 _0463_
*556 _0464_
*557 _0465_
*558 _0466_
*559 _0467_
*560 _0468_
*561 _0469_
*562 _0470_
*563 _0471_
*564 _0472_
*565 _0473_
*566 _0474_
*567 _0475_
*568 _0476_
*569 _0477_
*570 _0478_
*571 _0479_
*572 _0480_
*573 _0481_
*574 _0482_
*575 _0483_
*576 _0484_
*577 _0485_
*578 _0486_
*579 _0487_
*580 _0488_
*581 _0489_
*582 _0490_
*583 _0491_
*584 _0492_
*585 _0493_
*586 _0494_
*587 _0495_
*588 _0496_
*589 _0497_
*590 _0498_
*591 _0499_
*592 _0500_
*593 _0501_
*594 _0502_
*595 _0503_
*596 _0504_
*597 _0505_
*598 _0506_
*599 _0507_
*600 _0508_
*601 _0509_
*602 _0510_
*603 _0511_
*604 _0512_
*605 _0513_
*606 _0514_
*607 _0515_
*608 _0516_
*609 _0517_
*610 _0518_
*611 _0519_
*612 _0520_
*613 _0521_
*614 _0522_
*615 _0523_
*616 _0524_
*617 _0525_
*618 _0526_
*619 _0527_
*620 _0528_
*621 _0529_
*622 _0530_
*623 _0531_
*624 _0532_
*625 _0533_
*626 _0534_
*627 _0535_
*628 _0536_
*629 _0537_
*630 _0538_
*631 _0539_
*632 _0540_
*633 _0541_
*634 _0542_
*635 _0543_
*636 _0544_
*637 _0545_
*638 _0546_
*639 _0547_
*640 _0548_
*641 _0549_
*642 _0550_
*643 _0551_
*644 _0552_
*645 _0553_
*646 _0554_
*647 _0555_
*648 _0556_
*649 _0557_
*650 _0558_
*651 _0559_
*652 _0560_
*653 _0561_
*654 _0562_
*655 _0563_
*656 _0564_
*657 _0565_
*658 _0566_
*659 _0567_
*660 _0568_
*661 _0569_
*662 _0570_
*663 _0571_
*664 _0572_
*665 _0573_
*666 _0574_
*667 _0575_
*668 _0576_
*669 _0577_
*670 _0578_
*671 _0579_
*672 _0580_
*673 _0581_
*674 _0582_
*675 _0583_
*676 _0584_
*677 _0585_
*678 _0586_
*679 _0587_
*680 _0588_
*681 _0589_
*682 _0590_
*683 _0591_
*684 _0592_
*685 _0593_
*686 _0594_
*687 _0595_
*688 _0596_
*689 _0597_
*690 _0598_
*691 _0599_
*692 _0600_
*693 _0601_
*694 _0602_
*695 _0603_
*696 _0604_
*697 _0605_
*698 _0606_
*699 _0607_
*700 _0608_
*701 _0609_
*702 _0610_
*703 _0611_
*704 _0612_
*705 _0613_
*706 _0614_
*707 _0615_
*708 _0616_
*709 addr_reg\[0\]
*710 addr_reg\[10\]
*711 addr_reg\[11\]
*712 addr_reg\[12\]
*713 addr_reg\[13\]
*714 addr_reg\[14\]
*715 addr_reg\[15\]
*716 addr_reg\[1\]
*717 addr_reg\[2\]
*718 addr_reg\[3\]
*719 addr_reg\[4\]
*720 addr_reg\[5\]
*721 addr_reg\[6\]
*722 addr_reg\[7\]
*723 addr_reg\[8\]
*724 addr_reg\[9\]
*725 byte_count\[0\]
*726 byte_count\[1\]
*727 byte_count\[2\]
*728 byte_count\[3\]
*729 clknet_0_clk
*730 clknet_4_0_0_clk
*731 clknet_4_10_0_clk
*732 clknet_4_11_0_clk
*733 clknet_4_12_0_clk
*734 clknet_4_13_0_clk
*735 clknet_4_14_0_clk
*736 clknet_4_15_0_clk
*737 clknet_4_1_0_clk
*738 clknet_4_2_0_clk
*739 clknet_4_3_0_clk
*740 clknet_4_4_0_clk
*741 clknet_4_5_0_clk
*742 clknet_4_6_0_clk
*743 clknet_4_7_0_clk
*744 clknet_4_8_0_clk
*745 clknet_4_9_0_clk
*746 cmd_reg\[0\]
*747 cmd_reg\[1\]
*748 cmd_reg\[2\]
*749 cmd_reg\[3\]
*750 cmd_reg\[4\]
*751 cmd_reg\[5\]
*752 cmd_reg\[6\]
*753 cmd_reg\[7\]
*754 data_reg\[0\]
*755 data_reg\[10\]
*756 data_reg\[11\]
*757 data_reg\[12\]
*758 data_reg\[13\]
*759 data_reg\[14\]
*760 data_reg\[15\]
*761 data_reg\[16\]
*762 data_reg\[17\]
*763 data_reg\[18\]
*764 data_reg\[19\]
*765 data_reg\[1\]
*766 data_reg\[20\]
*767 data_reg\[21\]
*768 data_reg\[22\]
*769 data_reg\[23\]
*770 data_reg\[2\]
*771 data_reg\[3\]
*772 data_reg\[4\]
*773 data_reg\[5\]
*774 data_reg\[6\]
*775 data_reg\[7\]
*776 data_reg\[8\]
*777 data_reg\[9\]
*778 net1
*779 net10
*780 net100
*781 net101
*782 net102
*783 net103
*784 net104
*785 net105
*786 net106
*787 net107
*788 net108
*789 net109
*790 net11
*791 net110
*792 net111
*793 net112
*794 net113
*795 net114
*796 net115
*797 net116
*798 net117
*799 net118
*800 net119
*801 net12
*802 net120
*803 net121
*804 net122
*805 net123
*806 net124
*807 net125
*808 net126
*809 net127
*810 net128
*811 net129
*812 net13
*813 net130
*814 net131
*815 net132
*816 net133
*817 net134
*818 net135
*819 net136
*820 net137
*821 net138
*822 net139
*823 net14
*824 net140
*825 net141
*826 net142
*827 net143
*828 net144
*829 net145
*830 net146
*831 net147
*832 net148
*833 net149
*834 net15
*835 net150
*836 net151
*837 net152
*838 net153
*839 net154
*840 net155
*841 net156
*842 net157
*843 net158
*844 net159
*845 net16
*846 net160
*847 net161
*848 net162
*849 net163
*850 net164
*851 net165
*852 net166
*853 net167
*854 net168
*855 net169
*856 net17
*857 net170
*858 net171
*859 net172
*860 net173
*861 net174
*862 net175
*863 net176
*864 net177
*865 net178
*866 net179
*867 net18
*868 net180
*869 net181
*870 net182
*871 net183
*872 net184
*873 net185
*874 net186
*875 net187
*876 net188
*877 net189
*878 net19
*879 net190
*880 net191
*881 net192
*882 net193
*883 net194
*884 net195
*885 net196
*886 net197
*887 net198
*888 net199
*889 net2
*890 net20
*891 net200
*892 net201
*893 net202
*894 net203
*895 net204
*896 net205
*897 net206
*898 net207
*899 net208
*900 net209
*901 net21
*902 net210
*903 net211
*904 net212
*905 net213
*906 net214
*907 net215
*908 net216
*909 net217
*910 net218
*911 net219
*912 net22
*913 net220
*914 net221
*915 net222
*916 net223
*917 net224
*918 net225
*919 net226
*920 net227
*921 net228
*922 net229
*923 net23
*924 net230
*925 net231
*926 net232
*927 net233
*928 net234
*929 net235
*930 net236
*931 net237
*932 net238
*933 net239
*934 net24
*935 net240
*936 net241
*937 net242
*938 net243
*939 net244
*940 net245
*941 net246
*942 net247
*943 net248
*944 net249
*945 net25
*946 net250
*947 net251
*948 net252
*949 net253
*950 net254
*951 net255
*952 net256
*953 net257
*954 net258
*955 net259
*956 net26
*957 net260
*958 net261
*959 net262
*960 net263
*961 net264
*962 net265
*963 net266
*964 net267
*965 net268
*966 net269
*967 net27
*968 net270
*969 net271
*970 net272
*971 net273
*972 net274
*973 net275
*974 net276
*975 net277
*976 net278
*977 net279
*978 net28
*979 net280
*980 net281
*981 net282
*982 net283
*983 net284
*984 net285
*985 net286
*986 net287
*987 net288
*988 net289
*989 net29
*990 net290
*991 net291
*992 net292
*993 net293
*994 net294
*995 net295
*996 net296
*997 net297
*998 net298
*999 net299
*1000 net3
*1001 net30
*1002 net300
*1003 net301
*1004 net302
*1005 net303
*1006 net304
*1007 net305
*1008 net306
*1009 net307
*1010 net308
*1011 net309
*1012 net31
*1013 net310
*1014 net311
*1015 net312
*1016 net313
*1017 net314
*1018 net315
*1019 net316
*1020 net317
*1021 net318
*1022 net319
*1023 net32
*1024 net320
*1025 net321
*1026 net322
*1027 net323
*1028 net324
*1029 net325
*1030 net326
*1031 net327
*1032 net328
*1033 net329
*1034 net33
*1035 net330
*1036 net331
*1037 net332
*1038 net333
*1039 net334
*1040 net335
*1041 net336
*1042 net337
*1043 net338
*1044 net339
*1045 net34
*1046 net340
*1047 net341
*1048 net342
*1049 net343
*1050 net344
*1051 net345
*1052 net346
*1053 net347
*1054 net348
*1055 net349
*1056 net35
*1057 net350
*1058 net351
*1059 net352
*1060 net353
*1061 net354
*1062 net355
*1063 net356
*1064 net357
*1065 net358
*1066 net359
*1067 net36
*1068 net360
*1069 net361
*1070 net362
*1071 net363
*1072 net364
*1073 net365
*1074 net366
*1075 net367
*1076 net368
*1077 net369
*1078 net37
*1079 net370
*1080 net371
*1081 net372
*1082 net373
*1083 net374
*1084 net375
*1085 net376
*1086 net377
*1087 net378
*1088 net379
*1089 net38
*1090 net380
*1091 net381
*1092 net382
*1093 net383
*1094 net384
*1095 net385
*1096 net386
*1097 net387
*1098 net388
*1099 net389
*1100 net39
*1101 net390
*1102 net391
*1103 net392
*1104 net393
*1105 net394
*1106 net395
*1107 net396
*1108 net397
*1109 net398
*1110 net399
*1111 net4
*1112 net40
*1113 net400
*1114 net401
*1115 net402
*1116 net403
*1117 net404
*1118 net405
*1119 net406
*1120 net407
*1121 net408
*1122 net409
*1123 net41
*1124 net410
*1125 net411
*1126 net412
*1127 net413
*1128 net414
*1129 net415
*1130 net416
*1131 net417
*1132 net418
*1133 net419
*1134 net42
*1135 net420
*1136 net421
*1137 net422
*1138 net423
*1139 net424
*1140 net425
*1141 net426
*1142 net427
*1143 net428
*1144 net429
*1145 net43
*1146 net430
*1147 net431
*1148 net432
*1149 net433
*1150 net434
*1151 net435
*1152 net436
*1153 net437
*1154 net438
*1155 net44
*1156 net45
*1157 net46
*1158 net47
*1159 net48
*1160 net49
*1161 net5
*1162 net50
*1163 net51
*1164 net52
*1165 net53
*1166 net54
*1167 net55
*1168 net56
*1169 net57
*1170 net58
*1171 net59
*1172 net6
*1173 net60
*1174 net61
*1175 net62
*1176 net63
*1177 net64
*1178 net65
*1179 net66
*1180 net67
*1181 net68
*1182 net69
*1183 net7
*1184 net70
*1185 net71
*1186 net72
*1187 net73
*1188 net74
*1189 net75
*1190 net76
*1191 net77
*1192 net78
*1193 net79
*1194 net8
*1195 net80
*1196 net81
*1197 net82
*1198 net83
*1199 net84
*1200 net85
*1201 net86
*1202 net87
*1203 net88
*1204 net89
*1205 net9
*1206 net90
*1207 net91
*1208 net92
*1209 net93
*1210 net94
*1211 net95
*1212 net96
*1213 net97
*1214 net98
*1215 net99
*1216 state\[0\]
*1217 state\[1\]
*1218 state\[2\]
*1219 uart_rx_inst\.bit_index\[0\]
*1220 uart_rx_inst\.bit_index\[1\]
*1221 uart_rx_inst\.bit_index\[2\]
*1222 uart_rx_inst\.bit_index\[3\]
*1223 uart_rx_inst\.clock_count\[0\]
*1224 uart_rx_inst\.clock_count\[10\]
*1225 uart_rx_inst\.clock_count\[11\]
*1226 uart_rx_inst\.clock_count\[12\]
*1227 uart_rx_inst\.clock_count\[13\]
*1228 uart_rx_inst\.clock_count\[14\]
*1229 uart_rx_inst\.clock_count\[15\]
*1230 uart_rx_inst\.clock_count\[1\]
*1231 uart_rx_inst\.clock_count\[2\]
*1232 uart_rx_inst\.clock_count\[3\]
*1233 uart_rx_inst\.clock_count\[4\]
*1234 uart_rx_inst\.clock_count\[5\]
*1235 uart_rx_inst\.clock_count\[6\]
*1236 uart_rx_inst\.clock_count\[7\]
*1237 uart_rx_inst\.clock_count\[8\]
*1238 uart_rx_inst\.clock_count\[9\]
*1239 uart_rx_inst\.o_data\[0\]
*1240 uart_rx_inst\.o_data\[1\]
*1241 uart_rx_inst\.o_data\[2\]
*1242 uart_rx_inst\.o_data\[3\]
*1243 uart_rx_inst\.o_data\[4\]
*1244 uart_rx_inst\.o_data\[5\]
*1245 uart_rx_inst\.o_data\[6\]
*1246 uart_rx_inst\.o_data\[7\]
*1247 uart_rx_inst\.o_data_valid
*1248 uart_rx_inst\.receiving
*1249 uart_rx_inst\.rx_sync_1
*1250 uart_rx_inst\.rx_sync_2
*1251 uart_rx_inst\.shift_reg\[0\]
*1252 uart_rx_inst\.shift_reg\[1\]
*1253 uart_rx_inst\.shift_reg\[2\]
*1254 uart_rx_inst\.shift_reg\[3\]
*1255 uart_rx_inst\.shift_reg\[4\]
*1256 uart_rx_inst\.shift_reg\[5\]
*1257 uart_rx_inst\.shift_reg\[6\]
*1258 uart_rx_inst\.shift_reg\[7\]
*1259 uart_tx_inst\.bit_index\[0\]
*1260 uart_tx_inst\.bit_index\[1\]
*1261 uart_tx_inst\.bit_index\[2\]
*1262 uart_tx_inst\.bit_index\[3\]
*1263 uart_tx_inst\.clock_count\[0\]
*1264 uart_tx_inst\.clock_count\[10\]
*1265 uart_tx_inst\.clock_count\[11\]
*1266 uart_tx_inst\.clock_count\[12\]
*1267 uart_tx_inst\.clock_count\[13\]
*1268 uart_tx_inst\.clock_count\[14\]
*1269 uart_tx_inst\.clock_count\[15\]
*1270 uart_tx_inst\.clock_count\[1\]
*1271 uart_tx_inst\.clock_count\[2\]
*1272 uart_tx_inst\.clock_count\[3\]
*1273 uart_tx_inst\.clock_count\[4\]
*1274 uart_tx_inst\.clock_count\[5\]
*1275 uart_tx_inst\.clock_count\[6\]
*1276 uart_tx_inst\.clock_count\[7\]
*1277 uart_tx_inst\.clock_count\[8\]
*1278 uart_tx_inst\.clock_count\[9\]
*1279 uart_tx_inst\.i_data\[0\]
*1280 uart_tx_inst\.i_data\[1\]
*1281 uart_tx_inst\.i_data\[2\]
*1282 uart_tx_inst\.i_data\[3\]
*1283 uart_tx_inst\.i_data\[4\]
*1284 uart_tx_inst\.i_data\[5\]
*1285 uart_tx_inst\.i_data\[6\]
*1286 uart_tx_inst\.i_data\[7\]
*1287 uart_tx_inst\.i_data_valid
*1288 uart_tx_inst\.o_ready
*1289 uart_tx_inst\.shift_reg\[1\]
*1290 uart_tx_inst\.shift_reg\[2\]
*1291 uart_tx_inst\.shift_reg\[3\]
*1292 uart_tx_inst\.shift_reg\[4\]
*1293 uart_tx_inst\.shift_reg\[5\]
*1294 uart_tx_inst\.shift_reg\[6\]
*1295 uart_tx_inst\.shift_reg\[7\]
*1296 uart_tx_inst\.shift_reg\[8\]
*1297 uart_tx_inst\.shift_reg\[9\]
*1298 uart_tx_inst\.transmitting
*1299 ANTENNA__0618__A
*1300 ANTENNA__0705__B1
*1301 ANTENNA__0717__B
*1302 ANTENNA__0723__A
*1303 ANTENNA__0724__A
*1304 ANTENNA__0739__A
*1305 ANTENNA__0754__B
*1306 ANTENNA__0755__S
*1307 ANTENNA__0756__S
*1308 ANTENNA__0757__S
*1309 ANTENNA__0758__S
*1310 ANTENNA__0759__S
*1311 ANTENNA__0760__S
*1312 ANTENNA__0761__S
*1313 ANTENNA__0762__S
*1314 ANTENNA__0766__A1
*1315 ANTENNA__0767__A1
*1316 ANTENNA__0769__A1
*1317 ANTENNA__0770__A1
*1318 ANTENNA__0771__A1
*1319 ANTENNA__0831__C
*1320 ANTENNA__0839__B
*1321 ANTENNA__0841__D_N
*1322 ANTENNA__0862__A
*1323 ANTENNA__0862__B
*1324 ANTENNA__0862__D_N
*1325 ANTENNA__0864__A_N
*1326 ANTENNA__0864__B
*1327 ANTENNA__0864__C
*1328 ANTENNA__0864__D
*1329 ANTENNA__0866__A1
*1330 ANTENNA__0866__A2
*1331 ANTENNA__0876__B
*1332 ANTENNA__0883__A
*1333 ANTENNA__0887__B1
*1334 ANTENNA__0890__C_N
*1335 ANTENNA__0893__A1_N
*1336 ANTENNA__0893__B1
*1337 ANTENNA__0895__A1_N
*1338 ANTENNA__0896__B
*1339 ANTENNA__0896__C_N
*1340 ANTENNA__0897__A1_N
*1341 ANTENNA__0897__B1
*1342 ANTENNA__0898__B
*1343 ANTENNA__0898__C_N
*1344 ANTENNA__0899__A1_N
*1345 ANTENNA__0899__B1
*1346 ANTENNA__0900__B
*1347 ANTENNA__0901__A1_N
*1348 ANTENNA__0901__B1
*1349 ANTENNA__0902__B
*1350 ANTENNA__0902__C_N
*1351 ANTENNA__0903__A1_N
*1352 ANTENNA__0903__B1
*1353 ANTENNA__0904__C_N
*1354 ANTENNA__0905__A1_N
*1355 ANTENNA__0905__B1
*1356 ANTENNA__0906__C_N
*1357 ANTENNA__0907__A1_N
*1358 ANTENNA__0907__B1
*1359 ANTENNA__0908__B
*1360 ANTENNA__0909__A2
*1361 ANTENNA__0909__B1
*1362 ANTENNA__0909__B2
*1363 ANTENNA__0910__A2
*1364 ANTENNA__0910__B1
*1365 ANTENNA__0910__B2
*1366 ANTENNA__0911__B1
*1367 ANTENNA__0911__B2
*1368 ANTENNA__0912__B1
*1369 ANTENNA__0912__B2
*1370 ANTENNA__0913__A2
*1371 ANTENNA__0913__B1
*1372 ANTENNA__0913__B2
*1373 ANTENNA__0914__A2
*1374 ANTENNA__0914__B1
*1375 ANTENNA__0914__B2
*1376 ANTENNA__0915__A2
*1377 ANTENNA__0915__B1
*1378 ANTENNA__0915__B2
*1379 ANTENNA__0916__A2
*1380 ANTENNA__0916__B1
*1381 ANTENNA__0916__B2
*1382 ANTENNA__0918__A2
*1383 ANTENNA__0918__B2
*1384 ANTENNA__0920__B2
*1385 ANTENNA__0922__A2
*1386 ANTENNA__0922__B2
*1387 ANTENNA__0924__A2
*1388 ANTENNA__0924__B2
*1389 ANTENNA__0926__A2
*1390 ANTENNA__0926__B2
*1391 ANTENNA__0928__B2
*1392 ANTENNA__0932__B2
*1393 ANTENNA__0934__A2
*1394 ANTENNA__0934__B1
*1395 ANTENNA__0934__B2
*1396 ANTENNA__0935__A2
*1397 ANTENNA__0935__B1
*1398 ANTENNA__0935__B2
*1399 ANTENNA__0936__A2
*1400 ANTENNA__0936__B1
*1401 ANTENNA__0937__B1
*1402 ANTENNA__0937__B2
*1403 ANTENNA__0938__A2
*1404 ANTENNA__0938__B1
*1405 ANTENNA__0938__B2
*1406 ANTENNA__0939__A2
*1407 ANTENNA__0939__B1
*1408 ANTENNA__0939__B2
*1409 ANTENNA__0940__A2
*1410 ANTENNA__0940__B1
*1411 ANTENNA__0941__A2
*1412 ANTENNA__0941__B1
*1413 ANTENNA__0941__B2
*1414 ANTENNA__0943__A2
*1415 ANTENNA__0944__A2
*1416 ANTENNA__0945__A2
*1417 ANTENNA__0946__A2
*1418 ANTENNA__0947__A2
*1419 ANTENNA__0948__A2
*1420 ANTENNA__0950__A0
*1421 ANTENNA__0952__A0
*1422 ANTENNA__0953__A0
*1423 ANTENNA__0955__A0
*1424 ANTENNA__0956__A0
*1425 ANTENNA__0957__A0
*1426 ANTENNA__0960__S0
*1427 ANTENNA__0960__S1
*1428 ANTENNA__0963__A0
*1429 ANTENNA__0963__A1
*1430 ANTENNA__0963__S0
*1431 ANTENNA__0963__S1
*1432 ANTENNA__0966__A1
*1433 ANTENNA__0966__S0
*1434 ANTENNA__0966__S1
*1435 ANTENNA__0969__A1
*1436 ANTENNA__0969__S0
*1437 ANTENNA__0969__S1
*1438 ANTENNA__0972__A1
*1439 ANTENNA__0972__S0
*1440 ANTENNA__0972__S1
*1441 ANTENNA__0975__A1
*1442 ANTENNA__0975__S0
*1443 ANTENNA__0975__S1
*1444 ANTENNA__0978__A0
*1445 ANTENNA__0978__S0
*1446 ANTENNA__0978__S1
*1447 ANTENNA__0981__S0
*1448 ANTENNA__0981__S1
*1449 ANTENNA__0985__B
*1450 ANTENNA__0989__B
*1451 ANTENNA__0990__A1
*1452 ANTENNA__0990__S
*1453 ANTENNA__0991__S
*1454 ANTENNA__0992__A1
*1455 ANTENNA__0992__S
*1456 ANTENNA__0993__A1
*1457 ANTENNA__0993__S
*1458 ANTENNA__0994__S
*1459 ANTENNA__0995__A1
*1460 ANTENNA__0995__S
*1461 ANTENNA__0996__A1
*1462 ANTENNA__0996__S
*1463 ANTENNA__0997__A1
*1464 ANTENNA__0997__S
*1465 ANTENNA__0998__S
*1466 ANTENNA__0999__S
*1467 ANTENNA__1000__S
*1468 ANTENNA__1001__S
*1469 ANTENNA__1002__S
*1470 ANTENNA__1003__S
*1471 ANTENNA__1004__S
*1472 ANTENNA__1005__S
*1473 ANTENNA__1006__S
*1474 ANTENNA__1007__S
*1475 ANTENNA__1008__S
*1476 ANTENNA__1009__S
*1477 ANTENNA__1010__S
*1478 ANTENNA__1011__S
*1479 ANTENNA__1012__S
*1480 ANTENNA__1013__S
*1481 ANTENNA__1014__S
*1482 ANTENNA__1015__S
*1483 ANTENNA__1016__S
*1484 ANTENNA__1017__S
*1485 ANTENNA__1018__S
*1486 ANTENNA__1019__S
*1487 ANTENNA__1020__S
*1488 ANTENNA__1021__S
*1489 ANTENNA__1023__A2
*1490 ANTENNA__1026__S
*1491 ANTENNA__1027__S
*1492 ANTENNA__1028__S
*1493 ANTENNA__1029__S
*1494 ANTENNA__1030__S
*1495 ANTENNA__1031__S
*1496 ANTENNA__1032__S
*1497 ANTENNA__1033__S
*1498 ANTENNA__1034__S
*1499 ANTENNA__1035__S
*1500 ANTENNA__1036__S
*1501 ANTENNA__1037__S
*1502 ANTENNA__1038__S
*1503 ANTENNA__1039__S
*1504 ANTENNA__1040__S
*1505 ANTENNA__1041__S
*1506 ANTENNA__1148__A
*1507 ANTENNA__1159__A
*1508 ANTENNA__1197__A
*1509 ANTENNA__1420__A
*1510 ANTENNA_clkbuf_4_0_0_clk_A
*1511 ANTENNA_clkbuf_4_10_0_clk_A
*1512 ANTENNA_clkbuf_4_11_0_clk_A
*1513 ANTENNA_clkbuf_4_12_0_clk_A
*1514 ANTENNA_clkbuf_4_13_0_clk_A
*1515 ANTENNA_clkbuf_4_14_0_clk_A
*1516 ANTENNA_clkbuf_4_15_0_clk_A
*1517 ANTENNA_clkbuf_4_1_0_clk_A
*1518 ANTENNA_clkbuf_4_2_0_clk_A
*1519 ANTENNA_clkbuf_4_3_0_clk_A
*1520 ANTENNA_clkbuf_4_4_0_clk_A
*1521 ANTENNA_clkbuf_4_5_0_clk_A
*1522 ANTENNA_clkbuf_4_6_0_clk_A
*1523 ANTENNA_clkbuf_4_7_0_clk_A
*1524 ANTENNA_clkbuf_4_8_0_clk_A
*1525 ANTENNA_clkbuf_4_9_0_clk_A
*1526 ANTENNA_fanout100_A
*1527 ANTENNA_fanout101_A
*1528 ANTENNA_fanout102_A
*1529 ANTENNA_fanout103_A
*1530 ANTENNA_fanout104_A
*1531 ANTENNA_fanout105_A
*1532 ANTENNA_fanout106_A
*1533 ANTENNA_fanout108_A
*1534 ANTENNA_fanout109_A
*1535 ANTENNA_fanout110_A
*1536 ANTENNA_fanout114_A
*1537 ANTENNA_fanout89_A
*1538 ANTENNA_fanout90_A
*1539 ANTENNA_fanout91_A
*1540 ANTENNA_fanout92_A
*1541 ANTENNA_hold161_A
*1542 ANTENNA_hold163_A
*1543 ANTENNA_hold167_A
*1544 ANTENNA_hold172_A
*1545 ANTENNA_hold174_A
*1546 ANTENNA_hold208_A
*1547 ANTENNA_hold228_A
*1548 ANTENNA_hold303_A
*1549 ANTENNA_hold91_A
*1550 ANTENNA_output54_A
*1551 FILLER_0_0_113
*1552 FILLER_0_0_117
*1553 FILLER_0_0_121
*1554 FILLER_0_0_141
*1555 FILLER_0_0_145
*1556 FILLER_0_0_148
*1557 FILLER_0_0_169
*1558 FILLER_0_0_174
*1559 FILLER_0_0_178
*1560 FILLER_0_0_197
*1561 FILLER_0_0_201
*1562 FILLER_0_0_205
*1563 FILLER_0_0_217
*1564 FILLER_0_0_22
*1565 FILLER_0_0_223
*1566 FILLER_0_0_241
*1567 FILLER_0_0_249
*1568 FILLER_0_0_272
*1569 FILLER_0_0_281
*1570 FILLER_0_0_289
*1571 FILLER_0_0_29
*1572 FILLER_0_0_309
*1573 FILLER_0_0_33
*1574 FILLER_0_0_50
*1575 FILLER_0_0_76
*1576 FILLER_0_0_85
*1577 FILLER_0_0_93
*1578 FILLER_0_10_105
*1579 FILLER_0_10_109
*1580 FILLER_0_10_131
*1581 FILLER_0_10_15
*1582 FILLER_0_10_184
*1583 FILLER_0_10_188
*1584 FILLER_0_10_197
*1585 FILLER_0_10_209
*1586 FILLER_0_10_229
*1587 FILLER_0_10_233
*1588 FILLER_0_10_237
*1589 FILLER_0_10_246
*1590 FILLER_0_10_27
*1591 FILLER_0_10_279
*1592 FILLER_0_10_3
*1593 FILLER_0_10_312
*1594 FILLER_0_10_316
*1595 FILLER_0_10_46
*1596 FILLER_0_10_58
*1597 FILLER_0_10_70
*1598 FILLER_0_10_82
*1599 FILLER_0_10_85
*1600 FILLER_0_10_97
*1601 FILLER_0_11_107
*1602 FILLER_0_11_111
*1603 FILLER_0_11_113
*1604 FILLER_0_11_118
*1605 FILLER_0_11_15
*1606 FILLER_0_11_166
*1607 FILLER_0_11_172
*1608 FILLER_0_11_201
*1609 FILLER_0_11_223
*1610 FILLER_0_11_244
*1611 FILLER_0_11_255
*1612 FILLER_0_11_260
*1613 FILLER_0_11_264
*1614 FILLER_0_11_27
*1615 FILLER_0_11_277
*1616 FILLER_0_11_289
*1617 FILLER_0_11_3
*1618 FILLER_0_11_35
*1619 FILLER_0_11_40
*1620 FILLER_0_11_52
*1621 FILLER_0_11_57
*1622 FILLER_0_11_69
*1623 FILLER_0_11_81
*1624 FILLER_0_12_109
*1625 FILLER_0_12_121
*1626 FILLER_0_12_131
*1627 FILLER_0_12_141
*1628 FILLER_0_12_15
*1629 FILLER_0_12_159
*1630 FILLER_0_12_173
*1631 FILLER_0_12_177
*1632 FILLER_0_12_197
*1633 FILLER_0_12_233
*1634 FILLER_0_12_258
*1635 FILLER_0_12_27
*1636 FILLER_0_12_288
*1637 FILLER_0_12_29
*1638 FILLER_0_12_3
*1639 FILLER_0_12_41
*1640 FILLER_0_12_53
*1641 FILLER_0_12_67
*1642 FILLER_0_12_79
*1643 FILLER_0_12_83
*1644 FILLER_0_12_85
*1645 FILLER_0_12_97
*1646 FILLER_0_13_113
*1647 FILLER_0_13_121
*1648 FILLER_0_13_125
*1649 FILLER_0_13_14
*1650 FILLER_0_13_152
*1651 FILLER_0_13_162
*1652 FILLER_0_13_166
*1653 FILLER_0_13_172
*1654 FILLER_0_13_176
*1655 FILLER_0_13_184
*1656 FILLER_0_13_188
*1657 FILLER_0_13_192
*1658 FILLER_0_13_222
*1659 FILLER_0_13_238
*1660 FILLER_0_13_246
*1661 FILLER_0_13_252
*1662 FILLER_0_13_259
*1663 FILLER_0_13_272
*1664 FILLER_0_13_281
*1665 FILLER_0_13_315
*1666 FILLER_0_13_37
*1667 FILLER_0_13_41
*1668 FILLER_0_13_53
*1669 FILLER_0_13_57
*1670 FILLER_0_13_6
*1671 FILLER_0_13_69
*1672 FILLER_0_13_75
*1673 FILLER_0_13_82
*1674 FILLER_0_13_86
*1675 FILLER_0_13_98
*1676 FILLER_0_14_109
*1677 FILLER_0_14_132
*1678 FILLER_0_14_139
*1679 FILLER_0_14_141
*1680 FILLER_0_14_15
*1681 FILLER_0_14_178
*1682 FILLER_0_14_19
*1683 FILLER_0_14_190
*1684 FILLER_0_14_197
*1685 FILLER_0_14_215
*1686 FILLER_0_14_219
*1687 FILLER_0_14_234
*1688 FILLER_0_14_242
*1689 FILLER_0_14_281
*1690 FILLER_0_14_285
*1691 FILLER_0_14_3
*1692 FILLER_0_14_307
*1693 FILLER_0_14_315
*1694 FILLER_0_14_46
*1695 FILLER_0_14_54
*1696 FILLER_0_15_110
*1697 FILLER_0_15_113
*1698 FILLER_0_15_127
*1699 FILLER_0_15_131
*1700 FILLER_0_15_149
*1701 FILLER_0_15_160
*1702 FILLER_0_15_167
*1703 FILLER_0_15_19
*1704 FILLER_0_15_190
*1705 FILLER_0_15_198
*1706 FILLER_0_15_213
*1707 FILLER_0_15_221
*1708 FILLER_0_15_225
*1709 FILLER_0_15_23
*1710 FILLER_0_15_237
*1711 FILLER_0_15_278
*1712 FILLER_0_15_291
*1713 FILLER_0_15_295
*1714 FILLER_0_15_300
*1715 FILLER_0_15_308
*1716 FILLER_0_15_315
*1717 FILLER_0_15_44
*1718 FILLER_0_15_50
*1719 FILLER_0_16_119
*1720 FILLER_0_16_125
*1721 FILLER_0_16_129
*1722 FILLER_0_16_133
*1723 FILLER_0_16_139
*1724 FILLER_0_16_149
*1725 FILLER_0_16_15
*1726 FILLER_0_16_153
*1727 FILLER_0_16_183
*1728 FILLER_0_16_192
*1729 FILLER_0_16_208
*1730 FILLER_0_16_220
*1731 FILLER_0_16_232
*1732 FILLER_0_16_239
*1733 FILLER_0_16_289
*1734 FILLER_0_16_3
*1735 FILLER_0_16_306
*1736 FILLER_0_16_63
*1737 FILLER_0_16_77
*1738 FILLER_0_16_81
*1739 FILLER_0_17_101
*1740 FILLER_0_17_104
*1741 FILLER_0_17_108
*1742 FILLER_0_17_124
*1743 FILLER_0_17_148
*1744 FILLER_0_17_169
*1745 FILLER_0_17_191
*1746 FILLER_0_17_203
*1747 FILLER_0_17_208
*1748 FILLER_0_17_221
*1749 FILLER_0_17_233
*1750 FILLER_0_17_241
*1751 FILLER_0_17_265
*1752 FILLER_0_17_269
*1753 FILLER_0_17_273
*1754 FILLER_0_17_279
*1755 FILLER_0_17_281
*1756 FILLER_0_17_299
*1757 FILLER_0_17_3
*1758 FILLER_0_17_85
*1759 FILLER_0_17_89
*1760 FILLER_0_17_93
*1761 FILLER_0_18_107
*1762 FILLER_0_18_134
*1763 FILLER_0_18_138
*1764 FILLER_0_18_141
*1765 FILLER_0_18_145
*1766 FILLER_0_18_149
*1767 FILLER_0_18_15
*1768 FILLER_0_18_160
*1769 FILLER_0_18_164
*1770 FILLER_0_18_189
*1771 FILLER_0_18_195
*1772 FILLER_0_18_206
*1773 FILLER_0_18_235
*1774 FILLER_0_18_247
*1775 FILLER_0_18_27
*1776 FILLER_0_18_29
*1777 FILLER_0_18_3
*1778 FILLER_0_18_306
*1779 FILLER_0_18_39
*1780 FILLER_0_18_43
*1781 FILLER_0_18_48
*1782 FILLER_0_18_52
*1783 FILLER_0_18_66
*1784 FILLER_0_18_78
*1785 FILLER_0_18_82
*1786 FILLER_0_18_85
*1787 FILLER_0_18_89