*SPEF "ieee 1481-1999"
*DESIGN "uart_wbs_bridge"
*DATE "11:11:11 Fri 11 11, 1111"
*VENDOR "OpenRCX"
*PROGRAM "Parallel Extraction"
*VERSION "1.0"
*DESIGN_FLOW "NAME_SCOPE LOCAL" "PIN_CAP NONE"
*DIVIDER /
*DELIMITER :
*BUS_DELIMITER []
*T_UNIT 1 NS
*C_UNIT 1 PF
*R_UNIT 1 OHM
*L_UNIT 1 HENRY

*NAME_MAP
*1 clk
*2 i_start_rx
*3 i_uart_rx
*4 o_uart_tx
*5 rst
*8 wb_ack_i
*9 wb_adr_o[0]
*10 wb_adr_o[10]
*11 wb_adr_o[11]
*12 wb_adr_o[12]
*13 wb_adr_o[13]
*14 wb_adr_o[14]
*15 wb_adr_o[15]
*16 wb_adr_o[16]
*17 wb_adr_o[17]
*18 wb_adr_o[18]
*19 wb_adr_o[19]
*20 wb_adr_o[1]
*21 wb_adr_o[20]
*22 wb_adr_o[21]
*23 wb_adr_o[22]
*24 wb_adr_o[23]
*25 wb_adr_o[24]
*26 wb_adr_o[25]
*27 wb_adr_o[26]
*28 wb_adr_o[27]
*29 wb_adr_o[28]
*30 wb_adr_o[29]
*31 wb_adr_o[2]
*32 wb_adr_o[30]
*33 wb_adr_o[31]
*34 wb_adr_o[3]
*35 wb_adr_o[4]
*36 wb_adr_o[5]
*37 wb_adr_o[6]
*38 wb_adr_o[7]
*39 wb_adr_o[8]
*40 wb_adr_o[9]
*41 wb_cyc_o
*42 wb_dat_i[0]
*43 wb_dat_i[10]
*44 wb_dat_i[11]
*45 wb_dat_i[12]
*46 wb_dat_i[13]
*47 wb_dat_i[14]
*48 wb_dat_i[15]
*49 wb_dat_i[16]
*50 wb_dat_i[17]
*51 wb_dat_i[18]
*52 wb_dat_i[19]
*53 wb_dat_i[1]
*54 wb_dat_i[20]
*55 wb_dat_i[21]
*56 wb_dat_i[22]
*57 wb_dat_i[23]
*58 wb_dat_i[24]
*59 wb_dat_i[25]
*60 wb_dat_i[26]
*61 wb_dat_i[27]
*62 wb_dat_i[28]
*63 wb_dat_i[29]
*64 wb_dat_i[2]
*65 wb_dat_i[30]
*66 wb_dat_i[31]
*67 wb_dat_i[3]
*68 wb_dat_i[4]
*69 wb_dat_i[5]
*70 wb_dat_i[6]
*71 wb_dat_i[7]
*72 wb_dat_i[8]
*73 wb_dat_i[9]
*74 wb_dat_o[0]
*75 wb_dat_o[10]
*76 wb_dat_o[11]
*77 wb_dat_o[12]
*78 wb_dat_o[13]
*79 wb_dat_o[14]
*80 wb_dat_o[15]
*81 wb_dat_o[16]
*82 wb_dat_o[17]
*83 wb_dat_o[18]
*84 wb_dat_o[19]
*85 wb_dat_o[1]
*86 wb_dat_o[20]
*87 wb_dat_o[21]
*88 wb_dat_o[22]
*89 wb_dat_o[23]
*90 wb_dat_o[24]
*91 wb_dat_o[25]
*92 wb_dat_o[26]
*93 wb_dat_o[27]
*94 wb_dat_o[28]
*95 wb_dat_o[29]
*96 wb_dat_o[2]
*97 wb_dat_o[30]
*98 wb_dat_o[31]
*99 wb_dat_o[3]
*100 wb_dat_o[4]
*101 wb_dat_o[5]
*102 wb_dat_o[6]
*103 wb_dat_o[7]
*104 wb_dat_o[8]
*105 wb_dat_o[9]
*106 wb_stb_o
*107 wb_we_o
*108 _0000_
*109 _0001_
*110 _0002_
*111 _0003_
*112 _0004_
*113 _0005_
*114 _0006_
*115 _0007_
*116 _0008_
*117 _0009_
*118 _0010_
*119 _0011_
*120 _0012_
*121 _0013_
*122 _0014_
*123 _0015_
*124 _0016_
*125 _0017_
*126 _0018_
*127 _0019_
*128 _0020_
*129 _0021_
*130 _0022_
*131 _0023_
*132 _0024_
*133 _0025_
*134 _0026_
*135 _0027_
*136 _0028_
*137 _0029_
*138 _0030_
*139 _0031_
*140 _0032_
*141 _0033_
*142 _0034_
*143 _0035_
*144 _0036_
*145 _0037_
*146 _0038_
*147 _0039_
*148 _0040_
*149 _0041_
*150 _0042_
*151 _0043_
*152 _0044_
*153 _0045_
*154 _0046_
*155 _0047_
*156 _0048_
*157 _0049_
*158 _0050_
*159 _0051_
*160 _0052_
*161 _0053_
*162 _0054_
*163 _0055_
*164 _0056_
*165 _0057_
*166 _0058_
*167 _0059_
*168 _0060_
*169 _0061_
*170 _0062_
*171 _0063_
*172 _0064_
*173 _0065_
*174 _0066_
*175 _0067_
*176 _0068_
*177 _0069_
*178 _0070_
*179 _0071_
*180 _0072_
*181 _0073_
*182 _0074_
*183 _0075_
*184 _0076_
*185 _0077_
*186 _0078_
*187 _0079_
*188 _0080_
*189 _0081_
*190 _0082_
*191 _0083_
*192 _0084_
*193 _0085_
*194 _0086_
*195 _0087_
*196 _0088_
*197 _0089_
*198 _0090_
*199 _0091_
*200 _0092_
*201 _0093_
*202 _0094_
*203 _0095_
*204 _0096_
*205 _0097_
*206 _0098_
*207 _0099_
*208 _0100_
*209 _0101_
*210 _0102_
*211 _0103_
*212 _0104_
*213 _0105_
*214 _0106_
*215 _0107_
*216 _0108_
*217 _0109_
*218 _0110_
*219 _0111_
*220 _0112_
*221 _0113_
*222 _0114_
*223 _0115_
*224 _0116_
*225 _0117_
*226 _0118_
*227 _0119_
*228 _0120_
*229 _0121_
*230 _0122_
*231 _0123_
*232 _0124_
*233 _0125_
*234 _0126_
*235 _0127_
*236 _0128_
*237 _0129_
*238 _0130_
*239 _0131_
*240 _0132_
*241 _0133_
*242 _0134_
*243 _0135_
*244 _0136_
*245 _0137_
*246 _0138_
*247 _0139_
*248 _0140_
*249 _0141_
*250 _0142_
*251 _0143_
*252 _0144_
*253 _0145_
*254 _0146_
*255 _0147_
*256 _0148_
*257 _0149_
*258 _0150_
*259 _0151_
*260 _0152_
*261 _0153_
*262 _0154_
*263 _0155_
*264 _0156_
*265 _0157_
*266 _0158_
*267 _0159_
*268 _0160_
*269 _0161_
*270 _0162_
*271 _0163_
*272 _0164_
*273 _0165_
*274 _0166_
*275 _0167_
*276 _0168_
*277 _0169_
*278 _0170_
*279 _0171_
*280 _0172_
*281 _0173_
*282 _0174_
*283 _0175_
*284 _0176_
*285 _0177_
*286 _0178_
*287 _0179_
*288 _0180_
*289 _0181_
*290 _0182_
*291 _0183_
*292 _0184_
*293 _0185_
*294 _0186_
*295 _0187_
*296 _0188_
*297 _0189_
*298 _0190_
*299 _0191_
*300 _0192_
*301 _0193_
*302 _0194_
*303 _0195_
*304 _0196_
*305 _0197_
*306 _0198_
*307 _0199_
*308 _0200_
*309 _0201_
*310 _0202_
*311 _0203_
*312 _0204_
*313 _0205_
*314 _0206_
*315 _0207_
*316 _0208_
*317 _0209_
*318 _0210_
*319 _0211_
*320 _0212_
*321 _0213_
*322 _0214_
*323 _0215_
*324 _0216_
*325 _0217_
*326 _0218_
*327 _0219_
*328 _0220_
*329 _0221_
*330 _0222_
*331 _0223_
*332 _0224_
*333 _0225_
*334 _0226_
*335 _0227_
*336 _0228_
*337 _0229_
*338 _0230_
*339 _0231_
*340 _0232_
*341 _0233_
*342 _0234_
*343 _0235_
*344 _0236_
*345 _0237_
*346 _0238_
*347 _0239_
*348 _0240_
*349 _0241_
*350 _0242_
*351 _0243_
*352 _0244_
*353 _0245_
*354 _0246_
*355 _0247_
*356 _0248_
*357 _0249_
*358 _0250_
*359 _0251_
*360 _0252_
*361 _0253_
*362 _0254_
*363 _0255_
*364 _0256_
*365 _0257_
*366 _0258_
*367 _0259_
*368 _0260_
*369 _0261_
*370 _0262_
*371 _0263_
*372 _0264_
*373 _0265_
*374 _0266_
*375 _0267_
*376 _0268_
*377 _0269_
*378 _0270_
*379 _0271_
*380 _0272_
*381 _0273_
*382 _0274_
*383 _0275_
*384 _0276_
*385 _0277_
*386 _0278_
*387 _0279_
*388 _0280_
*389 _0281_
*390 _0282_
*391 _0283_
*392 _0284_
*393 _0285_
*394 _0286_
*395 _0287_
*396 _0288_
*397 _0289_
*398 _0290_
*399 _0291_
*400 _0292_
*401 _0293_
*402 _0294_
*403 _0295_
*404 _0296_
*405 _0297_
*406 _0298_
*407 _0299_
*408 _0300_
*409 _0301_
*410 _0302_
*411 _0303_
*412 _0304_
*413 _0305_
*414 _0306_
*415 _0307_
*416 _0308_
*417 _0309_
*418 _0310_
*419 _0311_
*420 _0312_
*421 _0313_
*422 _0314_
*423 _0315_
*424 _0316_
*425 _0317_
*426 _0318_
*427 _0319_
*428 _0320_
*429 _0321_
*430 _0322_
*431 _0323_
*432 _0324_
*433 _0325_
*434 _0326_
*435 _0327_
*436 _0328_
*437 _0329_
*438 _0330_
*439 _0331_
*440 _0332_
*441 _0333_
*442 _0334_
*443 _0335_
*444 _0336_
*445 _0337_
*446 _0338_
*447 _0339_
*448 _0340_
*449 _0341_
*450 _0342_
*451 _0343_
*452 _0344_
*453 _0345_
*454 _0346_
*455 _0347_
*456 _0348_
*457 _0349_
*458 _0350_
*459 _0351_
*460 _0352_
*461 _0353_
*462 _0354_
*463 _0355_
*464 _0356_
*465 _0357_
*466 _0358_
*467 _0359_
*468 _0360_
*469 _0361_
*470 _0362_
*471 _0363_
*472 _0364_
*473 _0365_
*474 _0366_
*475 _0367_
*476 _0368_
*477 _0369_
*478 _0370_
*479 _0371_
*480 _0372_
*481 _0373_
*482 _0374_
*483 _0375_
*484 _0376_
*485 _0377_
*486 _0378_
*487 _0379_
*488 _0380_
*489 _0381_
*490 _0382_
*491 _0383_
*492 _0384_
*493 _0385_
*494 _0386_
*495 _0387_
*496 _0388_
*497 _0389_
*498 _0390_
*499 _0391_
*500 _0392_
*501 _0393_
*502 _0394_
*503 _0395_
*504 _0396_
*505 _0397_
*506 _0398_
*507 _0399_
*508 _0400_
*509 _0401_
*510 _0402_
*511 _0403_
*512 _0404_
*513 _0405_
*514 _0406_
*515 _0407_
*516 _0408_
*517 _0409_
*518 _0410_
*519 _0411_
*520 _0412_
*521 _0413_
*522 _0414_
*523 _0415_
*524 _0416_
*525 _0417_
*526 _0418_
*527 _0419_
*528 _0420_
*529 _0421_
*530 _0422_
*531 _0423_
*532 _0424_
*533 _0425_
*534 _0426_
*535 _0427_
*536 _0428_
*537 _0429_
*538 _0430_
*539 _0431_
*540 _0432_
*541 _0433_
*542 _0434_
*543 _0435_
*544 _0436_
*545 _0437_
*546 _0438_
*547 _0439_
*548 _0440_
*549 _0441_
*550 _0442_
*551 _0443_
*552 _0444_
*553 _0445_
*554 _0446_
*555 _0447_
*556 _0448_
*557 _0449_
*558 _0450_
*559 _0451_
*560 _0452_
*561 _0453_
*562 _0454_
*563 _0455_
*564 _0456_
*565 _0457_
*566 _0458_
*567 _0459_
*568 _0460_
*569 _0461_
*570 _0462_
*571 _0463_
*572 _0464_
*573 _0465_
*574 _0466_
*575 _0467_
*576 _0468_
*577 _0469_
*578 _0470_
*579 _0471_
*580 _0472_
*581 _0473_
*582 _0474_
*583 _0475_
*584 _0476_
*585 _0477_
*586 _0478_
*587 _0479_
*588 _0480_
*589 _0481_
*590 _0482_
*591 _0483_
*592 _0484_
*593 _0485_
*594 _0486_
*595 _0487_
*596 _0488_
*597 _0489_
*598 _0490_
*599 _0491_
*600 _0492_
*601 _0493_
*602 _0494_
*603 _0495_
*604 _0496_
*605 _0497_
*606 _0498_
*607 _0499_
*608 _0500_
*609 _0501_
*610 _0502_
*611 _0503_
*612 _0504_
*613 _0505_
*614 _0506_
*615 _0507_
*616 _0508_
*617 _0509_
*618 _0510_
*619 _0511_
*620 _0512_
*621 _0513_
*622 _0514_
*623 _0515_
*624 _0516_
*625 _0517_
*626 _0518_
*627 _0519_
*628 _0520_
*629 _0521_
*630 _0522_
*631 _0523_
*632 _0524_
*633 _0525_
*634 _0526_
*635 _0527_
*636 _0528_
*637 _0529_
*638 _0530_
*639 _0531_
*640 _0532_
*641 _0533_
*642 _0534_
*643 _0535_
*644 _0536_
*645 _0537_
*646 _0538_
*647 _0539_
*648 _0540_
*649 _0541_
*650 _0542_
*651 _0543_
*652 _0544_
*653 _0545_
*654 _0546_
*655 _0547_
*656 _0548_
*657 _0549_
*658 _0550_
*659 _0551_
*660 _0552_
*661 _0553_
*662 _0554_
*663 _0555_
*664 _0556_
*665 _0557_
*666 _0558_
*667 _0559_
*668 _0560_
*669 _0561_
*670 _0562_
*671 _0563_
*672 _0564_
*673 _0565_
*674 _0566_
*675 _0567_
*676 _0568_
*677 _0569_
*678 _0570_
*679 _0571_
*680 _0572_
*681 _0573_
*682 _0574_
*683 _0575_
*684 _0576_
*685 _0577_
*686 _0578_
*687 _0579_
*688 _0580_
*689 _0581_
*690 _0582_
*691 _0583_
*692 _0584_
*693 _0585_
*694 _0586_
*695 _0587_
*696 _0588_
*697 _0589_
*698 _0590_
*699 _0591_
*700 _0592_
*701 _0593_
*702 _0594_
*703 _0595_
*704 _0596_
*705 _0597_
*706 _0598_
*707 _0599_
*708 _0600_
*709 _0601_
*710 _0602_
*711 _0603_
*712 _0604_
*713 _0605_
*714 _0606_
*715 _0607_
*716 _0608_
*717 _0609_
*718 _0610_
*719 _0611_
*720 _0612_
*721 _0613_
*722 _0614_
*723 _0615_
*724 _0616_
*725 _0617_
*726 _0618_
*727 _0619_
*728 _0620_
*729 _0621_
*730 _0622_
*731 _0623_
*732 _0624_
*733 _0625_
*734 _0626_
*735 _0627_
*736 _0628_
*737 _0629_
*738 _0630_
*739 _0631_
*740 _0632_
*741 _0633_
*742 _0634_
*743 _0635_
*744 _0636_
*745 _0637_
*746 _0638_
*747 _0639_
*748 _0640_
*749 _0641_
*750 _0642_
*751 _0643_
*752 _0644_
*753 _0645_
*754 _0646_
*755 _0647_
*756 _0648_
*757 _0649_
*758 _0650_
*759 _0651_
*760 _0652_
*761 _0653_
*762 _0654_
*763 _0655_
*764 _0656_
*765 _0657_
*766 _0658_
*767 _0659_
*768 _0660_
*769 _0661_
*770 _0662_
*771 _0663_
*772 _0664_
*773 _0665_
*774 _0666_
*775 _0667_
*776 _0668_
*777 _0669_
*778 _0670_
*779 _0671_
*780 _0672_
*781 _0673_
*782 _0674_
*783 _0675_
*784 _0676_
*785 _0677_
*786 _0678_
*787 _0679_
*788 _0680_
*789 _0681_
*790 _0682_
*791 _0683_
*792 _0684_
*793 _0685_
*794 _0686_
*795 _0687_
*796 _0688_
*797 _0689_
*798 _0690_
*799 _0691_
*800 _0692_
*801 _0693_
*802 _0694_
*803 _0695_
*804 _0696_
*805 _0697_
*806 _0698_
*807 _0699_
*808 _0700_
*809 _0701_
*810 _0702_
*811 _0703_
*812 _0704_
*813 _0705_
*814 _0706_
*815 _0707_
*816 _0708_
*817 addr_reg\[0\]
*818 addr_reg\[10\]
*819 addr_reg\[11\]
*820 addr_reg\[12\]
*821 addr_reg\[13\]
*822 addr_reg\[14\]
*823 addr_reg\[15\]
*824 addr_reg\[16\]
*825 addr_reg\[17\]
*826 addr_reg\[18\]
*827 addr_reg\[19\]
*828 addr_reg\[1\]
*829 addr_reg\[20\]
*830 addr_reg\[21\]
*831 addr_reg\[22\]
*832 addr_reg\[23\]
*833 addr_reg\[24\]
*834 addr_reg\[25\]
*835 addr_reg\[26\]
*836 addr_reg\[27\]
*837 addr_reg\[28\]
*838 addr_reg\[29\]
*839 addr_reg\[2\]
*840 addr_reg\[30\]
*841 addr_reg\[31\]
*842 addr_reg\[3\]
*843 addr_reg\[4\]
*844 addr_reg\[5\]
*845 addr_reg\[6\]
*846 addr_reg\[7\]
*847 addr_reg\[8\]
*848 addr_reg\[9\]
*849 byte_count\[0\]
*850 byte_count\[1\]
*851 byte_count\[2\]
*852 byte_count\[3\]
*853 clknet_0_clk
*854 clknet_1_0__leaf_clk
*855 clknet_1_1__leaf_clk
*856 clknet_leaf_0_clk
*857 clknet_leaf_10_clk
*858 clknet_leaf_11_clk
*859 clknet_leaf_12_clk
*860 clknet_leaf_13_clk
*861 clknet_leaf_14_clk
*862 clknet_leaf_15_clk
*863 clknet_leaf_16_clk
*864 clknet_leaf_17_clk
*865 clknet_leaf_18_clk
*866 clknet_leaf_19_clk
*867 clknet_leaf_1_clk
*868 clknet_leaf_20_clk
*869 clknet_leaf_21_clk
*870 clknet_leaf_22_clk
*871 clknet_leaf_23_clk
*872 clknet_leaf_24_clk
*873 clknet_leaf_25_clk
*874 clknet_leaf_26_clk
*875 clknet_leaf_27_clk
*876 clknet_leaf_2_clk
*877 clknet_leaf_3_clk
*878 clknet_leaf_4_clk
*879 clknet_leaf_5_clk
*880 clknet_leaf_6_clk
*881 clknet_leaf_7_clk
*882 clknet_leaf_8_clk
*883 clknet_leaf_9_clk
*884 cmd_reg\[0\]
*885 cmd_reg\[1\]
*886 cmd_reg\[2\]
*887 cmd_reg\[3\]
*888 cmd_reg\[4\]
*889 cmd_reg\[5\]
*890 cmd_reg\[6\]
*891 cmd_reg\[7\]
*892 data_reg\[0\]
*893 data_reg\[10\]
*894 data_reg\[11\]
*895 data_reg\[12\]
*896 data_reg\[13\]
*897 data_reg\[14\]
*898 data_reg\[15\]
*899 data_reg\[16\]
*900 data_reg\[17\]
*901 data_reg\[18\]
*902 data_reg\[19\]
*903 data_reg\[1\]
*904 data_reg\[20\]
*905 data_reg\[21\]
*906 data_reg\[22\]
*907 data_reg\[23\]
*908 data_reg\[2\]
*909 data_reg\[3\]
*910 data_reg\[4\]
*911 data_reg\[5\]
*912 data_reg\[6\]
*913 data_reg\[7\]
*914 data_reg\[8\]
*915 data_reg\[9\]
*916 net1
*917 net10
*918 net100
*919 net101
*920 net102
*921 net103
*922 net104
*923 net105
*924 net106
*925 net107
*926 net108
*927 net109
*928 net11
*929 net110
*930 net111
*931 net112
*932 net113
*933 net114
*934 net115
*935 net116
*936 net117
*937 net118
*938 net119
*939 net12
*940 net120
*941 net121
*942 net122
*943 net123
*944 net124
*945 net125
*946 net126
*947 net127
*948 net128
*949 net129
*950 net13
*951 net130
*952 net131
*953 net132
*954 net133
*955 net134
*956 net135
*957 net136
*958 net137
*959 net138
*960 net139
*961 net14
*962 net140
*963 net141
*964 net142
*965 net143
*966 net144
*967 net145
*968 net146
*969 net147
*970 net148
*971 net149
*972 net15
*973 net150
*974 net151
*975 net152
*976 net153
*977 net154
*978 net155
*979 net156
*980 net157
*981 net158
*982 net159
*983 net16
*984 net160
*985 net161
*986 net162
*987 net163
*988 net164
*989 net165
*990 net166
*991 net167
*992 net168
*993 net169
*994 net17
*995 net170
*996 net171
*997 net172
*998 net173
*999 net174
*1000 net175
*1001 net176
*1002 net177
*1003 net178
*1004 net179
*1005 net18
*1006 net180
*1007 net181
*1008 net182
*1009 net183
*1010 net184
*1011 net185
*1012 net186
*1013 net187
*1014 net188
*1015 net189
*1016 net19
*1017 net190
*1018 net191
*1019 net192
*1020 net193
*1021 net194
*1022 net195
*1023 net196
*1024 net197
*1025 net198
*1026 net199
*1027 net2
*1028 net20
*1029 net200
*1030 net201
*1031 net202
*1032 net203
*1033 net204
*1034 net205
*1035 net206
*1036 net207
*1037 net208
*1038 net209
*1039 net21
*1040 net210
*1041 net211
*1042 net212
*1043 net213
*1044 net214
*1045 net215
*1046 net216
*1047 net217
*1048 net218
*1049 net219
*1050 net22
*1051 net220
*1052 net221
*1053 net222
*1054 net223
*1055 net224
*1056 net225
*1057 net226
*1058 net227
*1059 net228
*1060 net229
*1061 net23
*1062 net230
*1063 net231
*1064 net232
*1065 net233
*1066 net234
*1067 net235
*1068 net236
*1069 net237
*1070 net238
*1071 net239
*1072 net24
*1073 net240
*1074 net241
*1075 net242
*1076 net243
*1077 net244
*1078 net245
*1079 net246
*1080 net247
*1081 net248
*1082 net249
*1083 net25
*1084 net250
*1085 net251
*1086 net252
*1087 net253
*1088 net254
*1089 net255
*1090 net256
*1091 net257
*1092 net258
*1093 net259
*1094 net26
*1095 net260
*1096 net261
*1097 net262
*1098 net263
*1099 net264
*1100 net265
*1101 net266
*1102 net267
*1103 net268
*1104 net269
*1105 net27
*1106 net270
*1107 net271
*1108 net272
*1109 net273
*1110 net274
*1111 net275
*1112 net276
*1113 net277
*1114 net278
*1115 net279
*1116 net28
*1117 net280
*1118 net281
*1119 net282
*1120 net283
*1121 net284
*1122 net285
*1123 net286
*1124 net287
*1125 net288
*1126 net289
*1127 net29
*1128 net290
*1129 net291
*1130 net292
*1131 net293
*1132 net294
*1133 net295
*1134 net296
*1135 net297
*1136 net298
*1137 net299
*1138 net3
*1139 net30
*1140 net300
*1141 net301
*1142 net302
*1143 net303
*1144 net304
*1145 net305
*1146 net306
*1147 net307
*1148 net308
*1149 net309
*1150 net31
*1151 net310
*1152 net311
*1153 net312
*1154 net313
*1155 net314
*1156 net315
*1157 net316
*1158 net317
*1159 net318
*1160 net319
*1161 net32
*1162 net320
*1163 net321
*1164 net322
*1165 net323
*1166 net324
*1167 net325
*1168 net326
*1169 net327
*1170 net328
*1171 net329
*1172 net33
*1173 net330
*1174 net331
*1175 net332
*1176 net333
*1177 net334
*1178 net335
*1179 net336
*1180 net337
*1181 net338
*1182 net339
*1183 net34
*1184 net340
*1185 net341
*1186 net342
*1187 net343
*1188 net344
*1189 net345
*1190 net346
*1191 net347
*1192 net348
*1193 net349
*1194 net35
*1195 net350
*1196 net351
*1197 net352
*1198 net353
*1199 net354
*1200 net355
*1201 net356
*1202 net357
*1203 net358
*1204 net359
*1205 net36
*1206 net360
*1207 net361
*1208 net362
*1209 net363
*1210 net364
*1211 net365
*1212 net366
*1213 net367
*1214 net368
*1215 net369
*1216 net37
*1217 net370
*1218 net371
*1219 net372
*1220 net373
*1221 net374
*1222 net375
*1223 net376
*1224 net377
*1225 net378
*1226 net379
*1227 net38
*1228 net380
*1229 net381
*1230 net382
*1231 net383
*1232 net384
*1233 net385
*1234 net386
*1235 net387
*1236 net388
*1237 net389
*1238 net39
*1239 net390
*1240 net391
*1241 net392
*1242 net393
*1243 net394
*1244 net395
*1245 net396
*1246 net397
*1247 net398
*1248 net399
*1249 net4
*1250 net40
*1251 net400
*1252 net401
*1253 net402
*1254 net403
*1255 net404
*1256 net405
*1257 net406
*1258 net407
*1259 net408
*1260 net409
*1261 net41
*1262 net410
*1263 net411
*1264 net412
*1265 net413
*1266 net414
*1267 net415
*1268 net416
*1269 net417
*1270 net418
*1271 net419
*1272 net42
*1273 net420
*1274 net421
*1275 net422
*1276 net423
*1277 net424
*1278 net425
*1279 net426
*1280 net427
*1281 net428
*1282 net429
*1283 net43
*1284 net430
*1285 net431
*1286 net432
*1287 net433
*1288 net434
*1289 net435
*1290 net436
*1291 net437
*1292 net438
*1293 net439
*1294 net44
*1295 net440
*1296 net441
*1297 net442
*1298 net443
*1299 net444
*1300 net445
*1301 net446
*1302 net447
*1303 net448
*1304 net449
*1305 net45
*1306 net450
*1307 net451
*1308 net452
*1309 net453
*1310 net454
*1311 net455
*1312 net456
*1313 net457
*1314 net458
*1315 net459
*1316 net46
*1317 net460
*1318 net461
*1319 net462
*1320 net463
*1321 net464
*1322 net465
*1323 net466
*1324 net467
*1325 net468
*1326 net469
*1327 net47
*1328 net470
*1329 net471
*1330 net472
*1331 net473
*1332 net474
*1333 net475
*1334 net476
*1335 net477
*1336 net478
*1337 net479
*1338 net48
*1339 net480
*1340 net481
*1341 net482
*1342 net483
*1343 net484
*1344 net485
*1345 net486
*1346 net487
*1347 net488
*1348 net489
*1349 net49
*1350 net490
*1351 net491
*1352 net492
*1353 net493
*1354 net494
*1355 net495
*1356 net496
*1357 net497
*1358 net498
*1359 net499
*1360 net5
*1361 net50
*1362 net500
*1363 net501
*1364 net502
*1365 net503
*1366 net504
*1367 net505
*1368 net506
*1369 net507
*1370 net508
*1371 net509
*1372 net51
*1373 net510
*1374 net511
*1375 net512
*1376 net513
*1377 net514
*1378 net515
*1379 net516
*1380 net517
*1381 net518
*1382 net519
*1383 net52
*1384 net520
*1385 net521
*1386 net522
*1387 net523
*1388 net524
*1389 net525
*1390 net53
*1391 net54
*1392 net55
*1393 net56
*1394 net57
*1395 net58
*1396 net59
*1397 net6
*1398 net60
*1399 net61
*1400 net62
*1401 net63
*1402 net64
*1403 net65
*1404 net66
*1405 net67
*1406 net68
*1407 net69
*1408 net7
*1409 net70
*1410 net71
*1411 net72
*1412 net73
*1413 net74
*1414 net75
*1415 net76
*1416 net77
*1417 net78
*1418 net79
*1419 net8
*1420 net80
*1421 net81
*1422 net82
*1423 net83
*1424 net84
*1425 net85
*1426 net86
*1427 net87
*1428 net88
*1429 net89
*1430 net9
*1431 net90
*1432 net91
*1433 net92
*1434 net93
*1435 net94
*1436 net95
*1437 net96
*1438 net97
*1439 net98
*1440 net99
*1441 state\[0\]
*1442 state\[1\]
*1443 state\[2\]
*1444 uart_rx_inst\.bit_index\[0\]
*1445 uart_rx_inst\.bit_index\[1\]
*1446 uart_rx_inst\.bit_index\[2\]
*1447 uart_rx_inst\.bit_index\[3\]
*1448 uart_rx_inst\.clock_count\[0\]
*1449 uart_rx_inst\.clock_count\[10\]
*1450 uart_rx_inst\.clock_count\[11\]
*1451 uart_rx_inst\.clock_count\[12\]
*1452 uart_rx_inst\.clock_count\[13\]
*1453 uart_rx_inst\.clock_count\[14\]
*1454 uart_rx_inst\.clock_count\[15\]
*1455 uart_rx_inst\.clock_count\[1\]
*1456 uart_rx_inst\.clock_count\[2\]
*1457 uart_rx_inst\.clock_count\[3\]
*1458 uart_rx_inst\.clock_count\[4\]
*1459 uart_rx_inst\.clock_count\[5\]
*1460 uart_rx_inst\.clock_count\[6\]
*1461 uart_rx_inst\.clock_count\[7\]
*1462 uart_rx_inst\.clock_count\[8\]
*1463 uart_rx_inst\.clock_count\[9\]
*1464 uart_rx_inst\.o_data\[0\]
*1465 uart_rx_inst\.o_data\[1\]
*1466 uart_rx_inst\.o_data\[2\]
*1467 uart_rx_inst\.o_data\[3\]
*1468 uart_rx_inst\.o_data\[4\]
*1469 uart_rx_inst\.o_data\[5\]
*1470 uart_rx_inst\.o_data\[6\]
*1471 uart_rx_inst\.o_data\[7\]
*1472 uart_rx_inst\.o_data_valid
*1473 uart_rx_inst\.receiving
*1474 uart_rx_inst\.rx_sync_1
*1475 uart_rx_inst\.rx_sync_2
*1476 uart_rx_inst\.shift_reg\[0\]
*1477 uart_rx_inst\.shift_reg\[1\]
*1478 uart_rx_inst\.shift_reg\[2\]
*1479 uart_rx_inst\.shift_reg\[3\]
*1480 uart_rx_inst\.shift_reg\[4\]
*1481 uart_rx_inst\.shift_reg\[5\]
*1482 uart_rx_inst\.shift_reg\[6\]
*1483 uart_rx_inst\.shift_reg\[7\]
*1484 uart_tx_inst\.bit_index\[0\]
*1485 uart_tx_inst\.bit_index\[1\]
*1486 uart_tx_inst\.bit_index\[2\]
*1487 uart_tx_inst\.bit_index\[3\]
*1488 uart_tx_inst\.clock_count\[0\]
*1489 uart_tx_inst\.clock_count\[10\]
*1490 uart_tx_inst\.clock_count\[11\]
*1491 uart_tx_inst\.clock_count\[12\]
*1492 uart_tx_inst\.clock_count\[13\]
*1493 uart_tx_inst\.clock_count\[14\]
*1494 uart_tx_inst\.clock_count\[15\]
*1495 uart_tx_inst\.clock_count\[1\]
*1496 uart_tx_inst\.clock_count\[2\]
*1497 uart_tx_inst\.clock_count\[3\]
*1498 uart_tx_inst\.clock_count\[4\]
*1499 uart_tx_inst\.clock_count\[5\]
*1500 uart_tx_inst\.clock_count\[6\]
*1501 uart_tx_inst\.clock_count\[7\]
*1502 uart_tx_inst\.clock_count\[8\]
*1503 uart_tx_inst\.clock_count\[9\]
*1504 uart_tx_inst\.i_data\[0\]
*1505 uart_tx_inst\.i_data\[1\]
*1506 uart_tx_inst\.i_data\[2\]
*1507 uart_tx_inst\.i_data\[3\]
*1508 uart_tx_inst\.i_data\[4\]
*1509 uart_tx_inst\.i_data\[5\]
*1510 uart_tx_inst\.i_data\[6\]
*1511 uart_tx_inst\.i_data\[7\]
*1512 uart_tx_inst\.i_data_valid
*1513 uart_tx_inst\.o_ready
*1514 uart_tx_inst\.shift_reg\[1\]
*1515 uart_tx_inst\.shift_reg\[2\]
*1516 uart_tx_inst\.shift_reg\[3\]
*1517 uart_tx_inst\.shift_reg\[4\]
*1518 uart_tx_inst\.shift_reg\[5\]
*1519 uart_tx_inst\.shift_reg\[6\]
*1520 uart_tx_inst\.shift_reg\[7\]
*1521 uart_tx_inst\.shift_reg\[8\]
*1522 uart_tx_inst\.shift_reg\[9\]
*1523 uart_tx_inst\.transmitting
*1524 ANTENNA__0871__A0
*1525 ANTENNA__0873__A0
*1526 ANTENNA__0948__A
*1527 ANTENNA__0948__B
*1528 ANTENNA__0949__C
*1529 ANTENNA__0955__A_N
*1530 ANTENNA__0956__A1
*1531 ANTENNA__0957__A_N
*1532 ANTENNA__0957__C
*1533 ANTENNA__0957__D
*1534 ANTENNA__0959__A1
*1535 ANTENNA__0959__A2
*1536 ANTENNA__0962__A
*1537 ANTENNA__0962__B
*1538 ANTENNA__0964__A0
*1539 ANTENNA__0965__A
*1540 ANTENNA__0966__A0
*1541 ANTENNA__0969__C
*1542 ANTENNA__0971__C
*1543 ANTENNA__0972__A2_N
*1544 ANTENNA__0973__A
*1545 ANTENNA__0973__B
*1546 ANTENNA__0973__C_N
*1547 ANTENNA__0974__A1_N
*1548 ANTENNA__0974__A2_N
*1549 ANTENNA__0974__B2
*1550 ANTENNA__0975__A
*1551 ANTENNA__0975__B
*1552 ANTENNA__0975__C_N
*1553 ANTENNA__0976__A1_N
*1554 ANTENNA__0976__A2_N
*1555 ANTENNA__0976__B2
*1556 ANTENNA__0977__A
*1557 ANTENNA__0977__B
*1558 ANTENNA__0978__A1_N
*1559 ANTENNA__0978__B2
*1560 ANTENNA__0979__A
*1561 ANTENNA__0979__B
*1562 ANTENNA__0979__C_N
*1563 ANTENNA__0980__A1_N
*1564 ANTENNA__0980__B2
*1565 ANTENNA__0981__B
*1566 ANTENNA__0982__A1_N
*1567 ANTENNA__0983__A
*1568 ANTENNA__0983__B
*1569 ANTENNA__0983__C_N
*1570 ANTENNA__0984__A1_N
*1571 ANTENNA__0984__B2
*1572 ANTENNA__0985__A
*1573 ANTENNA__0985__B
*1574 ANTENNA__0986__A1_N
*1575 ANTENNA__0986__B2
*1576 ANTENNA__0989__A_N
*1577 ANTENNA__0989__B
*1578 ANTENNA__0990__A
*1579 ANTENNA__0991__A2
*1580 ANTENNA__0991__B1
*1581 ANTENNA__0992__A_N
*1582 ANTENNA__0992__B
*1583 ANTENNA__0992__C
*1584 ANTENNA__0993__A
*1585 ANTENNA__0994__A2
*1586 ANTENNA__0994__B1
*1587 ANTENNA__0995__B
*1588 ANTENNA__0995__C
*1589 ANTENNA__0996__A
*1590 ANTENNA__0997__B1
*1591 ANTENNA__0998__A_N
*1592 ANTENNA__0998__B
*1593 ANTENNA__0999__A
*1594 ANTENNA__1000__A2
*1595 ANTENNA__1000__B1
*1596 ANTENNA__1001__A_N
*1597 ANTENNA__1001__B
*1598 ANTENNA__1001__C
*1599 ANTENNA__1002__A
*1600 ANTENNA__1003__B1
*1601 ANTENNA__1004__B
*1602 ANTENNA__1005__A
*1603 ANTENNA__1006__A2
*1604 ANTENNA__1006__B1
*1605 ANTENNA__1006__B2
*1606 ANTENNA__1007__A_N
*1607 ANTENNA__1007__B
*1608 ANTENNA__1007__C
*1609 ANTENNA__1008__A
*1610 ANTENNA__1009__A2
*1611 ANTENNA__1009__B1
*1612 ANTENNA__1010__A_N
*1613 ANTENNA__1011__A
*1614 ANTENNA__1012__A2
*1615 ANTENNA__1012__B1
*1616 ANTENNA__1013__B
*1617 ANTENNA__1014__B1
*1618 ANTENNA__1015__A
*1619 ANTENNA__1015__B
*1620 ANTENNA__1016__B1
*1621 ANTENNA__1016__B2
*1622 ANTENNA__1017__A
*1623 ANTENNA__1017__B
*1624 ANTENNA__1018__A2
*1625 ANTENNA__1018__B1
*1626 ANTENNA__1019__B
*1627 ANTENNA__1020__A2
*1628 ANTENNA__1020__B1
*1629 ANTENNA__1021__B
*1630 ANTENNA__1022__A2
*1631 ANTENNA__1022__B1
*1632 ANTENNA__1023__B
*1633 ANTENNA__1024__A2
*1634 ANTENNA__1024__B1
*1635 ANTENNA__1024__B2
*1636 ANTENNA__1025__B
*1637 ANTENNA__1026__A2
*1638 ANTENNA__1026__B1
*1639 ANTENNA__1027__B
*1640 ANTENNA__1028__B1
*1641 ANTENNA__1028__B2
*1642 ANTENNA__1030__B
*1643 ANTENNA__1030__C
*1644 ANTENNA__1031__B
*1645 ANTENNA__1031__C
*1646 ANTENNA__1032__A2
*1647 ANTENNA__1032__B2
*1648 ANTENNA__1033__A2
*1649 ANTENNA__1033__B2
*1650 ANTENNA__1034__B2
*1651 ANTENNA__1035__A2
*1652 ANTENNA__1035__B2
*1653 ANTENNA__1036__B2
*1654 ANTENNA__1037__B2
*1655 ANTENNA__1038__A2
*1656 ANTENNA__1038__B2
*1657 ANTENNA__1039__B2
*1658 ANTENNA__1040__A2_N
*1659 ANTENNA__1041__A1_N
*1660 ANTENNA__1041__A2_N
*1661 ANTENNA__1041__B2
*1662 ANTENNA__1042__A1_N
*1663 ANTENNA__1042__A2_N
*1664 ANTENNA__1042__B2
*1665 ANTENNA__1043__A2_N
*1666 ANTENNA__1043__B2
*1667 ANTENNA__1044__A2_N
*1668 ANTENNA__1044__B2
*1669 ANTENNA__1045__A2_N
*1670 ANTENNA__1046__A2_N
*1671 ANTENNA__1046__B2
*1672 ANTENNA__1047__A2_N
*1673 ANTENNA__1047__B2
*1674 ANTENNA__1048__A2
*1675 ANTENNA__1048__B2
*1676 ANTENNA__1049__A2
*1677 ANTENNA__1049__B2
*1678 ANTENNA__1050__A2
*1679 ANTENNA__1050__B2
*1680 ANTENNA__1051__A2
*1681 ANTENNA__1051__B2
*1682 ANTENNA__1052__A2
*1683 ANTENNA__1052__B2
*1684 ANTENNA__1053__B1
*1685 ANTENNA__1053__B2
*1686 ANTENNA__1054__A1
*1687 ANTENNA__1054__A2
*1688 ANTENNA__1054__B2
*1689 ANTENNA__1055__A2
*1690 ANTENNA__1055__B2
*1691 ANTENNA__1056__A2
*1692 ANTENNA__1056__B2
*1693 ANTENNA__1057__A2
*1694 ANTENNA__1057__B1
*1695 ANTENNA__1057__B2
*1696 ANTENNA__1058__B2
*1697 ANTENNA__1059__A2
*1698 ANTENNA__1059__B2
*1699 ANTENNA__1060__A2
*1700 ANTENNA__1060__B2
*1701 ANTENNA__1061__B1
*1702 ANTENNA__1061__B2
*1703 ANTENNA__1062__B2
*1704 ANTENNA__1063__A2
*1705 ANTENNA__1063__B1
*1706 ANTENNA__1063__B2
*1707 ANTENNA__1064__S
*1708 ANTENNA__1065__A0
*1709 ANTENNA__1065__S
*1710 ANTENNA__1066__A0
*1711 ANTENNA__1066__S
*1712 ANTENNA__1067__S
*1713 ANTENNA__1068__A0
*1714 ANTENNA__1069__S
*1715 ANTENNA__1070__A0
*1716 ANTENNA__1070__S
*1717 ANTENNA__1071__S
*1718 ANTENNA__1075__A
*1719 ANTENNA__1076__A1
*1720 ANTENNA__1076__S0
*1721 ANTENNA__1076__S1
*1722 ANTENNA__1079__A0
*1723 ANTENNA__1079__S0
*1724 ANTENNA__1079__S1
*1725 ANTENNA__1082__A1
*1726 ANTENNA__1082__S0
*1727 ANTENNA__1082__S1
*1728 ANTENNA__1085__A2
*1729 ANTENNA__1085__S0
*1730 ANTENNA__1085__S1
*1731 ANTENNA__1088__A0
*1732 ANTENNA__1088__A1
*1733 ANTENNA__1088__A2
*1734 ANTENNA__1088__S0
*1735 ANTENNA__1088__S1
*1736 ANTENNA__1091__A0
*1737 ANTENNA__1091__S0
*1738 ANTENNA__1091__S1
*1739 ANTENNA__1094__A2
*1740 ANTENNA__1094__S0
*1741 ANTENNA__1094__S1
*1742 ANTENNA__1097__A0
*1743 ANTENNA__1097__S0
*1744 ANTENNA__1097__S1
*1745 ANTENNA__1100__A
*1746 ANTENNA__1100__B
*1747 ANTENNA__1100__C
*1748 ANTENNA__1103__B
*1749 ANTENNA__1104__S
*1750 ANTENNA__1105__A0
*1751 ANTENNA__1105__S
*1752 ANTENNA__1106__A0
*1753 ANTENNA__1106__S
*1754 ANTENNA__1107__S
*1755 ANTENNA__1108__A0
*1756 ANTENNA__1108__S
*1757 ANTENNA__1109__S
*1758 ANTENNA__1110__A0
*1759 ANTENNA__1110__S
*1760 ANTENNA__1111__S
*1761 ANTENNA__1112__S
*1762 ANTENNA__1113__S
*1763 ANTENNA__1114__S
*1764 ANTENNA__1115__S
*1765 ANTENNA__1116__S
*1766 ANTENNA__1117__S
*1767 ANTENNA__1118__S
*1768 ANTENNA__1119__S
*1769 ANTENNA__1120__S
*1770 ANTENNA__1121__S
*1771 ANTENNA__1122__S
*1772 ANTENNA__1123__S
*1773 ANTENNA__1124__S
*1774 ANTENNA__1125__S
*1775 ANTENNA__1126__S
*1776 ANTENNA__1127__S
*1777 ANTENNA__1128__S
*1778 ANTENNA__1129__S
*1779 ANTENNA__1130__S
*1780 ANTENNA__1131__S
*1781 ANTENNA__1132__S
*1782 ANTENNA__1133__S
*1783 ANTENNA__1134__S
*1784 ANTENNA__1135__S
*1785 ANTENNA__1142__S
*1786 ANTENNA__1143__S
*1787 ANTENNA__1144__S
*1788 ANTENNA__1145__S
*1789 ANTENNA__1146__S
*1790 ANTENNA__1147__S
*1791 ANTENNA__1148__S
*1792 ANTENNA__1149__S
*1793 ANTENNA__1150__S
*1794 ANTENNA__1151__S
*1795 ANTENNA__1152__S
*1796 ANTENNA__1153__S
*1797 ANTENNA__1154__S
*1798 ANTENNA__1155__S
*1799 ANTENNA__1156__S
*1800 ANTENNA__1157__S
*1801 ANTENNA__1158__S
*1802 ANTENNA__1159__S
*1803 ANTENNA__1160__S
*1804 ANTENNA__1161__S
*1805 ANTENNA__1162__S
*1806 ANTENNA__1163__S
*1807 ANTENNA__1164__A0
*1808 ANTENNA__1164__S
*1809 ANTENNA__1165__S
*1810 ANTENNA__1166__S
*1811 ANTENNA__1167__S
*1812 ANTENNA__1168__S
*1813 ANTENNA__1169__S
*1814 ANTENNA__1170__S
*1815 ANTENNA__1171__S
*1816 ANTENNA__1172__S
*1817 ANTENNA__1173__S
*1818 ANTENNA__1177__B1_N
*1819 ANTENNA__1178__A0
*1820 ANTENNA__1181__B1_N
*1821 ANTENNA__1191__B
*1822 ANTENNA__1193__A2
*1823 ANTENNA__1194__A1
*1824 ANTENNA__1194__A2
*1825 ANTENNA__1340__A
*1826 ANTENNA__1416__A
*1827 ANTENNA_clkbuf_leaf_0_clk_A
*1828 ANTENNA_clkbuf_leaf_10_clk_A
*1829 ANTENNA_clkbuf_leaf_11_clk_A
*1830 ANTENNA_clkbuf_leaf_12_clk_A
*1831 ANTENNA_clkbuf_leaf_13_clk_A
*1832 ANTENNA_clkbuf_leaf_14_clk_A
*1833 ANTENNA_clkbuf_leaf_15_clk_A
*1834 ANTENNA_clkbuf_leaf_16_clk_A
*1835 ANTENNA_clkbuf_leaf_17_clk_A
*1836 ANTENNA_clkbuf_leaf_18_clk_A
*1837 ANTENNA_clkbuf_leaf_19_clk_A
*1838 ANTENNA_clkbuf_leaf_1_clk_A
*1839 ANTENNA_clkbuf_leaf_20_clk_A
*1840 ANTENNA_clkbuf_leaf_21_clk_A
*1841 ANTENNA_clkbuf_leaf_22_clk_A
*1842 ANTENNA_clkbuf_leaf_23_clk_A
*1843 ANTENNA_clkbuf_leaf_24_clk_A
*1844 ANTENNA_clkbuf_leaf_25_clk_A
*1845 ANTENNA_clkbuf_leaf_26_clk_A
*1846 ANTENNA_clkbuf_leaf_27_clk_A
*1847 ANTENNA_clkbuf_leaf_2_clk_A